ziftomenib.sdf
     RDKit          3D

 51 56  0  0  0  0  0  0  0  0999 V2000
  -28.8100    1.4135   23.4012 C   0  0  0  0  0  0  0  0  0  0  0  0
  -24.6838    0.5487   18.9609 C   0  0  0  0  0  0  0  0  0  0  0  0
  -25.4660   -0.5476   19.2434 N   0  0  0  0  0  0  0  0  0  0  0  0
  -25.1014    1.5771   19.7753 C   0  0  0  0  0  0  0  0  0  0  0  0
  -26.1641    1.0994   20.5982 C   0  0  0  0  0  0  0  0  0  0  0  0
  -26.3746   -0.2371   20.2415 C   0  0  0  0  0  0  0  0  0  0  0  0
  -27.3592   -1.0198   20.8556 C   0  0  0  0  0  0  0  0  0  0  0  0
  -28.1280   -0.4319   21.8587 C   0  0  0  0  0  0  0  0  0  0  0  0
  -27.9424    0.9018   22.2577 C   0  0  0  0  0  0  0  0  0  0  0  0
  -26.9519    1.6988   21.6220 C   0  0  0  0  0  0  0  0  0  0  0  0
  -26.7417    3.1323   22.0343 C   0  0  0  0  0  0  0  0  0  0  0  0
  -22.7357    0.5831   17.2674 N   0  0  0  0  0  0  0  0  0  0  0  0
  -23.6329    0.5841   18.0011 C   0  0  0  0  0  0  0  0  0  0  0  0
  -25.2949   -1.8667   18.6376 C   0  0  0  0  0  0  0  0  0  0  0  0
  -24.6285   -1.8481   17.2306 C   0  0  2  0  0  0  0  0  0  0  0  0
  -25.6323   -2.3964   16.1961 C   0  0  0  0  0  0  0  0  0  0  0  0
  -23.3704   -2.6361   17.1449 N   0  0  0  0  0  0  0  0  0  0  0  0
  -23.4468   -3.9365   17.8621 C   0  0  0  0  0  0  0  0  0  0  0  0
  -23.4975   -5.1885   16.9602 C   0  0  0  0  0  0  0  0  0  0  0  0
  -22.3193   -5.2437   16.0587 N   0  0  0  0  0  0  0  0  0  0  0  0
  -21.7758   -3.9211   15.6630 C   0  0  0  0  0  0  0  0  0  0  0  0
  -22.8509   -2.8229   15.7756 C   0  0  0  0  0  0  0  0  0  0  0  0
  -22.2344   -6.5139   14.9575 S   0  0  0  0  0  0  0  0  0  0  0  0
  -21.7439   -5.9840   13.7034 O   0  0  0  0  0  0  0  0  0  0  0  0
  -20.9569   -7.5500   15.6485 C   0  0  0  0  0  0  0  0  0  0  0  0
  -23.4814   -7.2452   15.0292 O   0  0  0  0  0  0  0  0  0  0  0  0
  -28.5987    0.6760   24.6580 N   0  0  0  0  0  0  0  0  0  0  0  0
  -28.6385    1.5314   25.8513 C   0  0  0  0  0  0  0  0  0  0  0  0
  -27.3958    2.4037   26.0333 C   0  0  0  0  0  0  0  0  0  0  0  0
  -26.1133    1.5652   25.9975 C   0  0  0  0  0  0  0  0  0  0  0  0
  -26.0923    0.6886   24.7415 C   0  0  0  0  0  0  0  0  0  0  0  0
  -27.3742   -0.1323   24.6329 C   0  0  0  0  0  0  0  0  0  0  0  0
  -24.9673    2.4793   26.0084 N   0  0  0  0  0  0  0  0  0  0  0  0
  -24.6535    2.9167   25.1841 H   0  0  0  0  0  0  0  0  0  0  0  0
  -24.3390    2.7047   27.2340 C   0  0  0  0  0  0  0  0  0  0  0  0
  -22.9908    3.0971   27.3155 C   0  0  0  0  0  0  0  0  0  0  0  0
  -21.9748    3.3602   26.3329 C   0  0  0  0  0  0  0  0  0  0  0  0
  -20.7656    3.7255   26.8914 C   0  0  0  0  0  0  0  0  0  0  0  0
  -20.8556    3.7549   28.6019 S   0  0  0  0  0  0  0  0  0  0  0  0
  -22.4931    3.2811   28.5919 C   0  0  0  0  0  0  0  0  0  0  0  0
  -23.1629    3.1253   29.7414 N   0  0  0  0  0  0  0  0  0  0  0  0
  -24.4330    2.7646   29.5696 C   0  0  0  0  0  0  0  0  0  0  0  0
  -25.0289    2.5570   28.3861 N   0  0  0  0  0  0  0  0  0  0  0  0
  -25.1611    2.5976   30.7436 N   0  0  0  0  0  0  0  0  0  0  0  0
  -25.6870    1.2616   30.9187 C   0  0  0  0  0  0  0  0  0  0  0  0
  -25.3050    3.3218   31.3949 H   0  0  0  0  0  0  0  0  0  0  0  0
  -19.4792    4.0682   26.1930 C   0  0  0  0  0  0  0  0  0  0  0  0
  -18.6055    2.8564   25.9233 C   0  0  0  0  0  0  0  0  0  0  0  0
  -18.8800    1.8432   26.7761 F   0  0  0  0  0  0  0  0  0  0  0  0
  -18.7474    2.3960   24.6623 F   0  0  0  0  0  0  0  0  0  0  0  0
  -17.3002    3.1768   26.0908 F   0  0  0  0  0  0  0  0  0  0  0  0
 12 13  3  0
 13  2  1  0
  2  3  1  0
  3 14  1  0
 14 15  1  0
 15 17  1  0
 17 18  1  0
 18 19  1  0
 19 20  1  0
 20 23  1  0
 23 24  2  0
 23 25  1  0
 23 26  2  0
 20 21  1  0
 21 22  1  0
 17 22  1  0
 15 16  1  6
  2  4  2  0
  4  5  1  0
  5  6  2  0
  3  6  1  0
  6  7  1  0
  7  8  2  0
  8  9  1  0
  9  1  1  0
  1 27  1  0
 27 28  1  0
 28 29  1  0
 29 30  1  0
 30 33  1  0
 33 35  1  0
 35 36  2  0
 36 37  1  0
 37 38  2  0
 38 47  1  0
 47 48  1  0
 48 49  1  0
 48 50  1  0
 48 51  1  0
 38 39  1  0
 36 40  1  0
 39 40  1  0
 40 41  2  0
 41 42  1  0
 42 44  1  0
 44 45  1  0
 42 43  2  0
 35 43  1  0
 30 31  1  0
 31 32  1  0
 27 32  1  0
  9 10  2  0
  5 10  1  0
 10 11  1  0
 33 34  1  0
 44 46  1  0
M  END
>  <minimizedAffinity>  (1) 
-8.49416

>  <CNNscore>  (1) 
0.2214074284

>  <CNNaffinity>  (1) 
6.6826930046

>  <CNN_VS>  (1) 
1.4795979261

>  <CNNaffinity_variance>  (1) 
1.1093071699

$$$$
