7uj4
     RDKit          3D

 45 49  0  0  0  0  0  0  0  0999 V2000
  -22.8000   -2.2738   21.8296 N   0  0  0  0  0  0  0  0  0  0  0  0
  -19.3741   -5.5359   23.0309 N   0  0  0  0  0  0  0  0  0  0  0  0
  -21.4917   -2.8000   21.4784 C   0  0  0  0  0  0  0  0  0  0  0  0
  -23.1693   -3.1714   22.9179 C   0  0  0  0  0  0  0  0  0  0  0  0
  -21.7201   -3.7806   22.7090 C   0  0  0  0  0  0  0  0  0  0  0  0
  -20.7233   -3.5907   23.8516 C   0  0  0  0  0  0  0  0  0  0  0  0
  -19.3517   -4.0922   23.4617 C   0  0  0  0  0  0  0  0  0  0  0  0
  -21.7372   -5.2572   22.3237 C   0  0  0  0  0  0  0  0  0  0  0  0
  -20.3703   -5.7647   21.9366 C   0  0  0  0  0  0  0  0  0  0  0  0
  -24.5155    1.1365   20.3999 N   0  0  0  0  0  0  0  0  0  0  0  0
  -24.3691   -1.2324   20.4880 N   0  0  0  0  0  0  0  0  0  0  0  0
  -22.9695    0.1101   21.8145 C   0  0  0  0  0  0  0  0  0  0  0  0
  -23.5542    1.2377   21.2956 C   0  0  0  0  0  0  0  0  0  0  0  0
  -24.9272   -0.0921   20.0673 C   0  0  0  0  0  0  0  0  0  0  0  0
  -23.4063   -1.1401   21.3949 C   0  0  0  0  0  0  0  0  0  0  0  0
  -21.9850    0.2516   22.7338 O   0  0  0  0  0  0  0  0  0  0  0  0
  -20.4904    2.0741   23.1448 C   0  0  0  0  0  0  0  0  0  0  0  0
  -19.2757    2.7015   22.8629 C   0  0  0  0  0  0  0  0  0  0  0  0
  -18.4139    2.0971   21.9815 C   0  0  0  0  0  0  0  0  0  0  0  0
  -18.6770    0.9091   21.3411 C   0  0  0  0  0  0  0  0  0  0  0  0
  -19.8896    0.2997   21.6000 C   0  0  0  0  0  0  0  0  0  0  0  0
  -20.7926    0.9001   22.4504 C   0  0  0  0  0  0  0  0  0  0  0  0
  -17.2324    2.6912   21.7073 F   0  0  0  0  0  0  0  0  0  0  0  0
  -21.1285    3.0107   25.3962 N   0  0  0  0  0  0  0  0  0  0  0  0
  -22.6462    2.7403   23.7999 O   0  0  0  0  0  0  0  0  0  0  0  0
  -21.4813    2.6283   24.1556 C   0  0  0  0  0  0  0  0  0  0  0  0
  -19.9429    1.6581   27.0520 C   0  0  0  0  0  0  0  0  0  0  0  0
  -19.8156    2.7268   25.9893 C   0  0  0  0  0  0  0  0  0  0  0  0
  -19.1584    3.9912   26.4802 C   0  0  0  0  0  0  0  0  0  0  0  0
  -22.0873    3.6719   26.2938 C   0  0  0  0  0  0  0  0  0  0  0  0
  -23.1283    2.7429   26.8443 C   0  0  0  0  0  0  0  0  0  0  0  0
  -18.0255   -5.9547   22.5316 C   0  0  0  0  0  0  0  0  0  0  0  0
  -17.9017   -7.4572   22.2758 C   0  0  1  0  0  0  0  0  0  0  0  0
  -18.7343   -8.2982   23.2544 C   0  0  0  0  0  0  0  0  0  0  0  0
  -18.6351   -9.7890   22.9779 C   0  0  0  0  0  0  0  0  0  0  0  0
  -18.2422   -7.8022   20.8277 C   0  0  0  0  0  0  0  0  0  0  0  0
  -18.0803   -9.2933   20.5705 C   0  0  0  0  0  0  0  0  0  0  0  0
  -18.9418  -10.0996   21.5288 C   0  0  1  0  0  0  0  0  0  0  0  0
  -18.7404  -11.5334   21.2561 N   0  0  0  0  0  0  0  0  0  0  0  0
  -19.6696  -11.9213   21.0934 H   0  0  0  0  0  0  0  0  0  0  0  0
  -18.0093  -12.5450   22.3058 S   0  0  0  0  0  0  0  0  0  0  0  0
  -16.6571  -12.6360   21.8436 O   0  0  0  0  0  0  0  0  0  0  0  0
  -18.2684  -12.0353   23.6225 O   0  0  0  0  0  0  0  0  0  0  0  0
  -18.8141  -14.1249   22.1017 C   0  0  0  0  0  0  0  0  0  0  0  0
  -20.2862  -14.0940   22.4596 C   0  0  0  0  0  0  0  0  0  0  0  0
 27 28  1  0
 24 30  1  0
 24 26  1  0
 41 42  2  0
 41 43  2  0
 41 44  1  0
 24 28  1  0
 28 29  1  0
 10 14  2  0
 16 12  1  0
 11 15  2  0
 30 31  1  0
  1  3  1  0
  1  4  1  0
  2 32  1  0
 25 26  2  0
 26 17  1  0
 41 39  1  0
 17 18  2  0
 17 22  1  0
 18 19  1  0
 19 20  2  0
 19 23  1  0
 20 21  1  0
 21 22  2  0
 16 22  1  0
 12 13  2  0
 12 15  1  0
 10 13  1  0
 11 14  1  0
  1 15  1  0
  3  5  1  0
  4  5  1  0
  5  6  1  0
  5  8  1  0
  6  7  1  0
  2  7  1  0
  8  9  1  0
  2  9  1  0
 33 32  1  6
 33 34  1  0
 33 36  1  0
 34 35  1  0
 35 38  1  0
 36 37  1  0
 37 38  1  0
 38 39  1  1
 44 45  1  0
 39 40  1  0
M  END
>  <minimizedAffinity>  (1) 
-8.48131

>  <CNNscore>  (1) 
0.5613272786

>  <CNNaffinity>  (1) 
7.2464461327

>  <CNN_VS>  (1) 
4.0676279068

>  <CNNaffinity_variance>  (1) 
0.5572149158

$$$$
