7uj4
     RDKit          3D

 45 49  0  0  0  0  0  0  0  0999 V2000
  -23.1328   -1.4098   20.9311 N   0  0  0  0  0  0  0  0  0  0  0  0
  -24.4692   -0.9248   16.2620 N   0  0  0  0  0  0  0  0  0  0  0  0
  -22.7670   -1.7130   19.5576 C   0  0  0  0  0  0  0  0  0  0  0  0
  -24.3224   -0.5933   20.7202 C   0  0  0  0  0  0  0  0  0  0  0  0
  -24.0989   -0.9279   19.1863 C   0  0  0  0  0  0  0  0  0  0  0  0
  -25.1632   -1.7901   18.5086 C   0  0  0  0  0  0  0  0  0  0  0  0
  -24.7532   -2.1458   17.0979 C   0  0  0  0  0  0  0  0  0  0  0  0
  -23.8631    0.3115   18.3276 C   0  0  0  0  0  0  0  0  0  0  0  0
  -23.4567   -0.0370   16.9171 C   0  0  0  0  0  0  0  0  0  0  0  0
  -21.7420   -2.9239   24.4511 N   0  0  0  0  0  0  0  0  0  0  0  0
  -22.7030   -3.2232   22.2998 N   0  0  0  0  0  0  0  0  0  0  0  0
  -22.1014   -1.0837   23.0622 C   0  0  0  0  0  0  0  0  0  0  0  0
  -21.6630   -1.6249   24.2444 C   0  0  0  0  0  0  0  0  0  0  0  0
  -22.2076   -3.6840   23.4535 C   0  0  0  0  0  0  0  0  0  0  0  0
  -22.6206   -1.9181   22.0804 C   0  0  0  0  0  0  0  0  0  0  0  0
  -22.0042    0.2554   22.8837 O   0  0  0  0  0  0  0  0  0  0  0  0
  -20.5447    2.1417   23.0745 C   0  0  0  0  0  0  0  0  0  0  0  0
  -19.3278    2.7407   22.7447 C   0  0  0  0  0  0  0  0  0  0  0  0
  -18.4291    2.0285   21.9897 C   0  0  0  0  0  0  0  0  0  0  0  0
  -18.6567    0.7562   21.5205 C   0  0  0  0  0  0  0  0  0  0  0  0
  -19.8710    0.1717   21.8250 C   0  0  0  0  0  0  0  0  0  0  0  0
  -20.8096    0.8747   22.5487 C   0  0  0  0  0  0  0  0  0  0  0  0
  -17.2452    2.5953   21.6712 F   0  0  0  0  0  0  0  0  0  0  0  0
  -21.4110    2.9877   25.2852 N   0  0  0  0  0  0  0  0  0  0  0  0
  -22.5902    3.2440   23.4229 O   0  0  0  0  0  0  0  0  0  0  0  0
  -21.5764    2.8207   23.9606 C   0  0  0  0  0  0  0  0  0  0  0  0
  -20.7963    0.9801   26.5378 C   0  0  0  0  0  0  0  0  0  0  0  0
  -20.3423    2.3403   26.0564 C   0  0  0  0  0  0  0  0  0  0  0  0
  -19.8517    3.2392   27.1622 C   0  0  0  0  0  0  0  0  0  0  0  0
  -22.3653    3.7730   26.0816 C   0  0  0  0  0  0  0  0  0  0  0  0
  -23.5663    2.9881   26.5190 C   0  0  0  0  0  0  0  0  0  0  0  0
  -23.9436   -1.3212   14.9167 C   0  0  0  0  0  0  0  0  0  0  0  0
  -23.0320   -2.5486   14.9477 C   0  0  1  0  0  0  0  0  0  0  0  0
  -22.1443   -2.5992   16.1997 C   0  0  0  0  0  0  0  0  0  0  0  0
  -21.2628   -3.8361   16.2439 C   0  0  0  0  0  0  0  0  0  0  0  0
  -23.8344   -3.8383   14.7907 C   0  0  0  0  0  0  0  0  0  0  0  0
  -22.9177   -5.0529   14.7844 C   0  0  0  0  0  0  0  0  0  0  0  0
  -22.0771   -5.0970   16.0502 C   0  0  1  0  0  0  0  0  0  0  0  0
  -21.1947   -6.2755   15.9929 N   0  0  0  0  0  0  0  0  0  0  0  0
  -21.3404   -6.6906   15.0726 H   0  0  0  0  0  0  0  0  0  0  0  0
  -21.2830   -7.5062   17.0593 S   0  0  0  0  0  0  0  0  0  0  0  0
  -22.5348   -8.1426   16.7797 O   0  0  0  0  0  0  0  0  0  0  0  0
  -20.0677   -8.2586   16.9264 O   0  0  0  0  0  0  0  0  0  0  0  0
  -21.3496   -6.7487   18.6740 C   0  0  0  0  0  0  0  0  0  0  0  0
  -20.0353   -6.8285   19.4240 C   0  0  0  0  0  0  0  0  0  0  0  0
 27 28  1  0
 24 30  1  0
 24 26  1  0
 41 42  2  0
 41 43  2  0
 41 44  1  0
 24 28  1  0
 28 29  1  0
 10 14  2  0
 16 12  1  0
 11 15  2  0
 30 31  1  0
  1  3  1  0
  1  4  1  0
  2 32  1  0
 25 26  2  0
 26 17  1  0
 41 39  1  0
 17 18  2  0
 17 22  1  0
 18 19  1  0
 19 20  2  0
 19 23  1  0
 20 21  1  0
 21 22  2  0
 16 22  1  0
 12 13  2  0
 12 15  1  0
 10 13  1  0
 11 14  1  0
  1 15  1  0
  3  5  1  0
  4  5  1  0
  5  6  1  0
  5  8  1  0
  6  7  1  0
  2  7  1  0
  8  9  1  0
  2  9  1  0
 33 32  1  1
 33 34  1  0
 33 36  1  0
 34 35  1  0
 35 38  1  0
 36 37  1  0
 37 38  1  0
 38 39  1  6
 44 45  1  0
 39 40  1  0
M  END
>  <minimizedAffinity>  (1) 
-7.27526

>  <CNNscore>  (1) 
0.1864339262

>  <CNNaffinity>  (1) 
6.3290786743

>  <CNN_VS>  (1) 
1.1799550056

>  <CNNaffinity_variance>  (1) 
1.5232306719

$$$$
