7uj4
     RDKit          3D

 45 49  0  0  0  0  0  0  0  0999 V2000
  -21.8049   -0.2923   22.8353 N   0  0  0  0  0  0  0  0  0  0  0  0
  -19.9158   -4.7866   23.0672 N   0  0  0  0  0  0  0  0  0  0  0  0
  -20.6825   -1.1263   22.4395 C   0  0  0  0  0  0  0  0  0  0  0  0
  -22.6635   -1.2811   23.4768 C   0  0  0  0  0  0  0  0  0  0  0  0
  -21.4677   -2.2840   23.1953 C   0  0  0  0  0  0  0  0  0  0  0  0
  -20.7358   -2.8408   24.4158 C   0  0  0  0  0  0  0  0  0  0  0  0
  -19.5388   -3.6644   23.9992 C   0  0  0  0  0  0  0  0  0  0  0  0
  -21.8601   -3.4511   22.2937 C   0  0  0  0  0  0  0  0  0  0  0  0
  -20.6698   -4.2792   21.8771 C   0  0  0  0  0  0  0  0  0  0  0  0
  -22.1573    3.7686   22.8727 N   0  0  0  0  0  0  0  0  0  0  0  0
  -20.8298    1.8009   22.9540 N   0  0  0  0  0  0  0  0  0  0  0  0
  -23.1599    1.6703   22.6812 C   0  0  0  0  0  0  0  0  0  0  0  0
  -23.2442    3.0393   22.7203 C   0  0  0  0  0  0  0  0  0  0  0  0
  -20.9836    3.1292   22.9296 C   0  0  0  0  0  0  0  0  0  0  0  0
  -21.9173    1.0595   22.7937 C   0  0  0  0  0  0  0  0  0  0  0  0
  -24.2973    0.9524   22.5224 O   0  0  0  0  0  0  0  0  0  0  0  0
  -26.2084    0.4699   21.1662 C   0  0  0  0  0  0  0  0  0  0  0  0
  -26.7306    0.2114   19.8977 C   0  0  0  0  0  0  0  0  0  0  0  0
  -25.8818    0.2453   18.8192 C   0  0  0  0  0  0  0  0  0  0  0  0
  -24.5347    0.5062   18.9086 C   0  0  0  0  0  0  0  0  0  0  0  0
  -24.0118    0.7373   20.1664 C   0  0  0  0  0  0  0  0  0  0  0  0
  -24.8302    0.6727   21.2732 C   0  0  0  0  0  0  0  0  0  0  0  0
  -26.3776    0.0046   17.5861 F   0  0  0  0  0  0  0  0  0  0  0  0
  -27.8976    1.5501   22.6935 N   0  0  0  0  0  0  0  0  0  0  0  0
  -27.0265   -0.4332   23.1751 O   0  0  0  0  0  0  0  0  0  0  0  0
  -27.0770    0.5219   22.4127 C   0  0  0  0  0  0  0  0  0  0  0  0
  -26.8569    3.7590   22.5720 C   0  0  0  0  0  0  0  0  0  0  0  0
  -27.8792    2.8244   21.9642 C   0  0  0  0  0  0  0  0  0  0  0  0
  -29.2618    3.4176   21.8752 C   0  0  0  0  0  0  0  0  0  0  0  0
  -28.8244    1.4989   23.8338 C   0  0  0  0  0  0  0  0  0  0  0  0
  -28.1886    1.8802   25.1377 C   0  0  0  0  0  0  0  0  0  0  0  0
  -18.6904   -5.4954   22.5777 C   0  0  0  0  0  0  0  0  0  0  0  0
  -18.9506   -6.9293   22.1148 C   0  0  1  0  0  0  0  0  0  0  0  0
  -17.7449   -7.5502   21.3943 C   0  0  0  0  0  0  0  0  0  0  0  0
  -17.9945   -8.9859   20.9639 C   0  0  0  0  0  0  0  0  0  0  0  0
  -19.4112   -7.8104   23.2739 C   0  0  0  0  0  0  0  0  0  0  0  0
  -19.7045   -9.2260   22.7989 C   0  0  0  0  0  0  0  0  0  0  0  0
  -18.4840   -9.8284   22.1219 C   0  0  1  0  0  0  0  0  0  0  0  0
  -18.8183  -11.1881   21.6638 N   0  0  0  0  0  0  0  0  0  0  0  0
  -19.8358  -11.2527   21.6955 H   0  0  0  0  0  0  0  0  0  0  0  0
  -18.2602  -12.5357   22.3934 S   0  0  0  0  0  0  0  0  0  0  0  0
  -17.0380  -12.8401   21.7122 O   0  0  0  0  0  0  0  0  0  0  0  0
  -18.2295  -12.2626   23.8023 O   0  0  0  0  0  0  0  0  0  0  0  0
  -19.4632  -13.8091   22.0521 C   0  0  0  0  0  0  0  0  0  0  0  0
  -19.7910  -13.9392   20.5784 C   0  0  0  0  0  0  0  0  0  0  0  0
 27 28  1  0
 24 30  1  0
 24 26  1  0
 41 42  2  0
 41 43  2  0
 41 44  1  0
 24 28  1  0
 28 29  1  0
 10 14  2  0
 16 12  1  0
 11 15  2  0
 30 31  1  0
  1  3  1  0
  1  4  1  0
  2 32  1  0
 25 26  2  0
 26 17  1  0
 41 39  1  0
 17 18  2  0
 17 22  1  0
 18 19  1  0
 19 20  2  0
 19 23  1  0
 20 21  1  0
 21 22  2  0
 16 22  1  0
 12 13  2  0
 12 15  1  0
 10 13  1  0
 11 14  1  0
  1 15  1  0
  3  5  1  0
  4  5  1  0
  5  6  1  0
  5  8  1  0
  6  7  1  0
  2  7  1  0
  8  9  1  0
  2  9  1  0
 33 32  1  1
 33 34  1  0
 33 36  1  0
 34 35  1  0
 35 38  1  0
 36 37  1  0
 37 38  1  0
 38 39  1  6
 44 45  1  0
 39 40  1  0
M  END
>  <minimizedAffinity>  (1) 
-8.32167

>  <CNNscore>  (1) 
0.3846581578

>  <CNNaffinity>  (1) 
6.9510669708

>  <CNN_VS>  (1) 
2.6737847328

>  <CNNaffinity_variance>  (1) 
0.3065007031

$$$$
