NS-C-142.sdf
     RDKit          3D

 26 29  0  0  0  0  0  0  0  0999 V2000
  -21.3772   -1.1286   23.7074 N   0  0  0  0  0  0  0  0  0  0  0  0
  -22.2688   -1.8263   24.6285 C   0  0  0  0  0  0  0  0  0  0  0  0
  -21.9317   -3.2971   24.4119 C   0  0  0  0  0  0  0  0  0  0  0  0
  -20.4301   -3.2736   24.1507 C   0  0  2  0  0  0  0  0  0  0  0  0
  -20.2477   -1.9830   23.3184 C   0  0  0  0  0  0  0  0  0  0  0  0
  -21.7656    0.7832   22.2660 C   0  0  0  0  0  0  0  0  0  0  0  0
  -21.8089    2.1652   22.0435 C   0  0  0  0  0  0  0  0  0  0  0  0
  -21.4884    3.0357   23.0729 C   0  0  0  0  0  0  0  0  0  0  0  0
  -21.1289    2.5527   24.3172 C   0  0  0  0  0  0  0  0  0  0  0  0
  -21.0898    1.1743   24.5254 C   0  0  0  0  0  0  0  0  0  0  0  0
  -21.3981    0.2386   23.5117 C   0  0  0  0  0  0  0  0  0  0  0  0
  -21.5305    4.3571   22.8605 F   0  0  0  0  0  0  0  0  0  0  0  0
  -20.7271    0.7601   25.7510 F   0  0  0  0  0  0  0  0  0  0  0  0
  -20.1245   -4.6664   22.1485 C   0  0  0  0  0  0  0  0  0  0  0  0
  -20.7331   -3.8860   21.4270 O   0  0  0  0  0  0  0  0  0  0  0  0
  -19.9723   -4.4949   23.5052 N   0  0  0  0  0  0  0  0  0  0  0  0
  -19.5506   -5.2035   24.0430 H   0  0  0  0  0  0  0  0  0  0  0  0
  -19.4356   -5.8664   21.5853 C   0  0  0  0  0  0  0  0  0  0  0  0
  -19.8289   -6.4236   20.4216 C   0  0  0  0  0  0  0  0  0  0  0  0
  -19.1274   -7.5223   19.9349 N   0  0  0  0  0  0  0  0  0  0  0  0
  -18.0335   -8.0881   20.5698 C   0  0  0  0  0  0  0  0  0  0  0  0
  -17.5967   -7.4871   21.7803 C   0  0  0  0  0  0  0  0  0  0  0  0
  -18.2618   -6.4194   22.2653 C   0  0  0  0  0  0  0  0  0  0  0  0
  -19.3092   -8.2732   18.8081 C   0  0  0  0  0  0  0  0  0  0  0  0
  -18.4132   -9.2333   18.7575 N   0  0  0  0  0  0  0  0  0  0  0  0
  -17.6064   -9.1163   19.8701 N   0  0  0  0  0  0  0  0  0  0  0  0
 14 18  1  0
 14 15  2  0
 18 19  2  0
 19 20  1  0
 20 21  1  0
 21 22  1  0
 22 23  2  0
 23 18  1  0
 20 24  1  0
 24 25  2  0
 25 26  1  0
 26 21  2  0
  6  7  2  0
  7  8  1  0
  8  9  2  0
  9 10  1  0
 10 11  2  0
 11  6  1  0
  8 12  1  0
 11  1  1  0
  1  2  1  0
  2  3  1  0
  3  4  1  0
  4  5  1  0
  5  1  1  0
  4 16  1  6
 14 16  1  0
 10 13  1  0
 16 17  1  0
M  END
>  <minimizedAffinity>  (1) 
-6.98404

>  <CNNscore>  (1) 
0.6495787501

>  <CNNaffinity>  (1) 
5.4573426247

>  <CNN_VS>  (1) 
3.5449738503

>  <CNNaffinity_variance>  (1) 
0.0281088557

$$$$
