ziftomenib.sdf
     RDKit          3D

 51 56  0  0  0  0  0  0  0  0999 V2000
  -21.8561   -4.1203   25.0615 C   0  0  0  0  0  0  0  0  0  0  0  0
  -19.4260   -7.1808   20.3480 C   0  0  0  0  0  0  0  0  0  0  0  0
  -20.6512   -7.6457   20.7679 N   0  0  0  0  0  0  0  0  0  0  0  0
  -19.1069   -6.0911   21.1264 C   0  0  0  0  0  0  0  0  0  0  0  0
  -20.1587   -5.8838   22.0673 C   0  0  0  0  0  0  0  0  0  0  0  0
  -21.1170   -6.8724   21.8182 C   0  0  0  0  0  0  0  0  0  0  0  0
  -22.2976   -6.9624   22.5648 C   0  0  0  0  0  0  0  0  0  0  0  0
  -22.4929   -6.0383   23.5899 C   0  0  0  0  0  0  0  0  0  0  0  0
  -21.5520   -5.0377   23.8834 C   0  0  0  0  0  0  0  0  0  0  0  0
  -20.3610   -4.9394   23.1139 C   0  0  0  0  0  0  0  0  0  0  0  0
  -19.3427   -3.8702   23.4120 C   0  0  0  0  0  0  0  0  0  0  0  0
  -18.0299   -8.2729   18.4711 N   0  0  0  0  0  0  0  0  0  0  0  0
  -18.6458   -7.7480   19.3008 C   0  0  0  0  0  0  0  0  0  0  0  0
  -21.3129   -8.8360   20.2372 C   0  0  0  0  0  0  0  0  0  0  0  0
  -20.6582   -9.4171   18.9496 C   0  0  2  0  0  0  0  0  0  0  0  0
  -21.6213   -9.2091   17.7630 C   0  0  0  0  0  0  0  0  0  0  0  0
  -20.3139  -10.8607   19.0427 N   0  0  0  0  0  0  0  0  0  0  0  0
  -18.9049  -11.0988   19.4540 C   0  0  0  0  0  0  0  0  0  0  0  0
  -18.7164  -11.6544   20.8820 C   0  0  0  0  0  0  0  0  0  0  0  0
  -19.4555  -12.9296   21.0593 N   0  0  0  0  0  0  0  0  0  0  0  0
  -20.6902  -13.0518   20.2458 C   0  0  0  0  0  0  0  0  0  0  0  0
  -21.2419  -11.6650   19.8624 C   0  0  0  0  0  0  0  0  0  0  0  0
  -19.4140  -13.6545   22.5780 S   0  0  0  0  0  0  0  0  0  0  0  0
  -18.8185  -12.7151   23.5036 O   0  0  0  0  0  0  0  0  0  0  0  0
  -21.1432  -13.8046   22.9904 C   0  0  0  0  0  0  0  0  0  0  0  0
  -18.8823  -14.9909   22.4155 O   0  0  0  0  0  0  0  0  0  0  0  0
  -22.6865   -2.9626   24.6896 N   0  0  0  0  0  0  0  0  0  0  0  0
  -21.9418   -1.6971   24.6524 C   0  0  0  0  0  0  0  0  0  0  0  0
  -21.5968   -1.1374   26.0330 C   0  0  0  0  0  0  0  0  0  0  0  0
  -22.8437   -1.0186   26.9163 C   0  0  0  0  0  0  0  0  0  0  0  0
  -23.5978   -2.3517   26.9446 C   0  0  0  0  0  0  0  0  0  0  0  0
  -23.8846   -2.8414   25.5280 C   0  0  0  0  0  0  0  0  0  0  0  0
  -22.4152   -0.6389   28.2658 N   0  0  0  0  0  0  0  0  0  0  0  0
  -21.9324   -1.2707   28.8464 H   0  0  0  0  0  0  0  0  0  0  0  0
  -22.7191    0.6538   28.6948 C   0  0  0  0  0  0  0  0  0  0  0  0
  -21.8530    1.7367   28.4589 C   0  0  0  0  0  0  0  0  0  0  0  0
  -20.5797    1.8617   27.8031 C   0  0  0  0  0  0  0  0  0  0  0  0
  -20.0909    3.1533   27.8153 C   0  0  0  0  0  0  0  0  0  0  0  0
  -21.1694    4.2175   28.6148 S   0  0  0  0  0  0  0  0  0  0  0  0
  -22.2743    2.9613   28.9421 C   0  0  0  0  0  0  0  0  0  0  0  0
  -23.4125    3.2117   29.6023 N   0  0  0  0  0  0  0  0  0  0  0  0
  -24.1753    2.1335   29.7707 C   0  0  0  0  0  0  0  0  0  0  0  0
  -23.8765    0.8961   29.3482 N   0  0  0  0  0  0  0  0  0  0  0  0
  -25.3691    2.3576   30.4497 N   0  0  0  0  0  0  0  0  0  0  0  0
  -26.3669    1.3341   30.2286 C   0  0  0  0  0  0  0  0  0  0  0  0
  -25.5205    3.1404   31.0272 H   0  0  0  0  0  0  0  0  0  0  0  0
  -18.8011    3.6699   27.2414 C   0  0  0  0  0  0  0  0  0  0  0  0
  -18.6740    3.4296   25.7478 C   0  0  0  0  0  0  0  0  0  0  0  0
  -19.3375    4.3667   25.0331 F   0  0  0  0  0  0  0  0  0  0  0  0
  -17.3871    3.4218   25.3403 F   0  0  0  0  0  0  0  0  0  0  0  0
  -19.2070    2.2277   25.4224 F   0  0  0  0  0  0  0  0  0  0  0  0
 12 13  3  0
 13  2  1  0
  2  3  1  0
  3 14  1  0
 14 15  1  0
 15 17  1  0
 17 18  1  0
 18 19  1  0
 19 20  1  0
 20 23  1  0
 23 24  2  0
 23 25  1  0
 23 26  2  0
 20 21  1  0
 21 22  1  0
 17 22  1  0
 15 16  1  6
  2  4  2  0
  4  5  1  0
  5  6  2  0
  3  6  1  0
  6  7  1  0
  7  8  2  0
  8  9  1  0
  9  1  1  0
  1 27  1  0
 27 28  1  0
 28 29  1  0
 29 30  1  0
 30 33  1  0
 33 35  1  0
 35 36  2  0
 36 37  1  0
 37 38  2  0
 38 47  1  0
 47 48  1  0
 48 49  1  0
 48 50  1  0
 48 51  1  0
 38 39  1  0
 36 40  1  0
 39 40  1  0
 40 41  2  0
 41 42  1  0
 42 44  1  0
 44 45  1  0
 42 43  2  0
 35 43  1  0
 30 31  1  0
 31 32  1  0
 27 32  1  0
  9 10  2  0
  5 10  1  0
 10 11  1  0
 33 34  1  0
 44 46  1  0
M  END
>  <minimizedAffinity>  (1) 
-8.42791

>  <CNNscore>  (1) 
0.5246685147

>  <CNNaffinity>  (1) 
7.6421561241

>  <CNN_VS>  (1) 
4.0095987320

>  <CNNaffinity_variance>  (1) 
0.2133375853

$$$$
