NS-C-142.sdf


 26 29  0  0  0  0  0  0  0  0999 V2000
  -20.1588   -5.3378   23.2180 N   0  0  0  0  0  0  0  0  0  0  0  0
  -21.3975   -5.7544   23.8677 C   0  0  0  0  0  0  0  0  0  0  0  0
  -21.6826   -4.6290   24.8557 C   0  0  0  0  0  0  0  0  0  0  0  0
  -21.2007   -3.3871   24.1147 C   0  0  0  0  0  0  0  0  0  0  0  0
  -19.9377   -3.8950   23.3810 C   0  0  0  0  0  0  0  0  0  0  0  0
  -18.2704   -6.7413   22.6285 C   0  0  0  0  0  0  0  0  0  0  0  0
  -17.5720   -7.5409   21.7151 C   0  0  0  0  0  0  0  0  0  0  0  0
  -18.0811   -7.7303   20.4403 C   0  0  0  0  0  0  0  0  0  0  0  0
  -19.2726   -7.1396   20.0631 C   0  0  0  0  0  0  0  0  0  0  0  0
  -19.9581   -6.3458   20.9823 C   0  0  0  0  0  0  0  0  0  0  0  0
  -19.4837   -6.1100   22.2929 C   0  0  0  0  0  0  0  0  0  0  0  0
  -17.4139   -8.4955   19.5673 F   0  0  0  0  0  0  0  0  0  0  0  0
  -21.1066   -5.7906   20.5604 F   0  0  0  0  0  0  0  0  0  0  0  0
  -21.6369   -1.0730   24.8195 C   0  0  0  0  0  0  0  0  0  0  0  0
  -22.3383   -0.8340   23.8443 O   0  0  0  0  0  0  0  0  0  0  0  0
  -20.9823   -2.2669   25.0176 N   0  0  0  0  0  0  0  0  0  0  0  0
  -20.3617   -2.3641   25.7756 H   0  0  0  0  0  0  0  0  0  0  0  0
  -21.4807   -0.0796   25.9242 C   0  0  0  0  0  0  0  0  0  0  0  0
  -20.5803    0.9220   25.8495 C   0  0  0  0  0  0  0  0  0  0  0  0
  -20.5037    1.8327   26.8987 N   0  0  0  0  0  0  0  0  0  0  0  0
  -21.3040    1.7839   28.0287 C   0  0  0  0  0  0  0  0  0  0  0  0
  -22.2741    0.7489   28.0991 C   0  0  0  0  0  0  0  0  0  0  0  0
  -22.3655   -0.1405   27.0901 C   0  0  0  0  0  0  0  0  0  0  0  0
  -19.6948    2.9177   27.0852 C   0  0  0  0  0  0  0  0  0  0  0  0
  -19.9607    3.4841   28.2410 N   0  0  0  0  0  0  0  0  0  0  0  0
  -20.9779    2.7685   28.8372 N   0  0  0  0  0  0  0  0  0  0  0  0
 14 18  1  0
 14 15  2  0
 18 19  2  0
 19 20  1  0
 20 21  1  0
 21 22  1  0
 22 23  2  0
 23 18  1  0
 20 24  1  0
 24 25  2  0
 25 26  1  0
 26 21  2  0
  6  7  2  0
  7  8  1  0
  8  9  2  0
  9 10  1  0
 10 11  2  0
 11  6  1  0
  8 12  1  0
 11  1  1  0
  1  2  1  0
  2  3  1  0
  3  4  1  0
  4  5  1  0
  5  1  1  0
  4 16  1  0
 14 16  1  0
 10 13  1  0
 16 17  1  0
M  END
> <minimizedAffinity>
-7.27118

> <CNNscore>
0.6702556610

> <CNNaffinity>
5.4900422096

> <CNN_VS>
3.6797318459

> <CNNaffinity_variance>
0.1905090362

$$$$
NS-C-142.sdf


 26 29  0  0  0  0  0  0  0  0999 V2000
  -21.7484   -0.2608   22.4800 N   0  0  0  0  0  0  0  0  0  0  0  0
  -22.9261   -1.0976   22.6876 C   0  0  0  0  0  0  0  0  0  0  0  0
  -22.4465   -2.4948   22.3109 C   0  0  0  0  0  0  0  0  0  0  0  0
  -20.9995   -2.5053   22.7901 C   0  0  0  0  0  0  0  0  0  0  0  0
  -20.5225   -1.0696   22.4697 C   0  0  0  0  0  0  0  0  0  0  0  0
  -22.9622    1.8250   22.7228 C   0  0  0  0  0  0  0  0  0  0  0  0
  -22.9947    3.2156   22.8859 C   0  0  0  0  0  0  0  0  0  0  0  0
  -21.8067    3.9249   22.9625 C   0  0  0  0  0  0  0  0  0  0  0  0
  -20.5907    3.2724   22.8818 C   0  0  0  0  0  0  0  0  0  0  0  0
  -20.5726    1.8874   22.7194 C   0  0  0  0  0  0  0  0  0  0  0  0
  -21.7513    1.1126   22.6268 C   0  0  0  0  0  0  0  0  0  0  0  0
  -21.8377    5.2543   23.1193 F   0  0  0  0  0  0  0  0  0  0  0  0
  -19.3640    1.3060   22.6397 F   0  0  0  0  0  0  0  0  0  0  0  0
  -20.1676   -4.8176   22.7335 C   0  0  0  0  0  0  0  0  0  0  0  0
  -20.6465   -5.0910   23.8271 O   0  0  0  0  0  0  0  0  0  0  0  0
  -20.2276   -3.5673   22.1623 N   0  0  0  0  0  0  0  0  0  0  0  0
  -19.7448   -3.3898   21.3229 H   0  0  0  0  0  0  0  0  0  0  0  0
  -19.5140   -5.8633   21.8902 C   0  0  0  0  0  0  0  0  0  0  0  0
  -19.9844   -6.1769   20.6656 C   0  0  0  0  0  0  0  0  0  0  0  0
  -19.3134   -7.1389   19.9170 N   0  0  0  0  0  0  0  0  0  0  0  0
  -18.1756   -7.8025   20.3471 C   0  0  0  0  0  0  0  0  0  0  0  0
  -17.6588   -7.4549   21.6236 C   0  0  0  0  0  0  0  0  0  0  0  0
  -18.2934   -6.5222   22.3615 C   0  0  0  0  0  0  0  0  0  0  0  0
  -19.5695   -7.6456   18.6744 C   0  0  0  0  0  0  0  0  0  0  0  0
  -18.6748   -8.5580   18.3671 N   0  0  0  0  0  0  0  0  0  0  0  0
  -17.7934   -8.6570   19.4235 N   0  0  0  0  0  0  0  0  0  0  0  0
 14 18  1  0
 14 15  2  0
 18 19  2  0
 19 20  1  0
 20 21  1  0
 21 22  1  0
 22 23  2  0
 23 18  1  0
 20 24  1  0
 24 25  2  0
 25 26  1  0
 26 21  2  0
  6  7  2  0
  7  8  1  0
  8  9  2  0
  9 10  1  0
 10 11  2  0
 11  6  1  0
  8 12  1  0
 11  1  1  0
  1  2  1  0
  2  3  1  0
  3  4  1  0
  4  5  1  0
  5  1  1  0
  4 16  1  0
 14 16  1  0
 10 13  1  0
 16 17  1  0
M  END
> <minimizedAffinity>
-7.40071

> <CNNscore>
0.6660601497

> <CNNaffinity>
5.7050747871

> <CNN_VS>
3.7999229431

> <CNNaffinity_variance>
0.0381129719

$$$$
NS-C-142.sdf


 26 29  0  0  0  0  0  0  0  0999 V2000
  -21.9825   -1.9244   25.1437 N   0  0  0  0  0  0  0  0  0  0  0  0
  -23.2445   -2.6488   25.2577 C   0  0  0  0  0  0  0  0  0  0  0  0
  -22.9873   -3.9432   24.4946 C   0  0  0  0  0  0  0  0  0  0  0  0
  -21.5241   -4.2411   24.8008 C   0  0  0  0  0  0  0  0  0  0  0  0
  -20.8815   -2.8345   24.8021 C   0  0  0  0  0  0  0  0  0  0  0  0
  -22.0857   -0.3310   26.9694 C   0  0  0  0  0  0  0  0  0  0  0  0
  -21.8859    0.9527   27.4923 C   0  0  0  0  0  0  0  0  0  0  0  0
  -21.3754    1.9523   26.6796 C   0  0  0  0  0  0  0  0  0  0  0  0
  -21.0596    1.6932   25.3589 C   0  0  0  0  0  0  0  0  0  0  0  0
  -21.2634    0.4106   24.8509 C   0  0  0  0  0  0  0  0  0  0  0  0
  -21.7885   -0.6460   25.6294 C   0  0  0  0  0  0  0  0  0  0  0  0
  -21.1836    3.1795   27.1796 F   0  0  0  0  0  0  0  0  0  0  0  0
  -20.9462    0.2165   23.5598 F   0  0  0  0  0  0  0  0  0  0  0  0
  -20.4586   -4.7401   22.6426 C   0  0  0  0  0  0  0  0  0  0  0  0
  -20.5626   -3.5864   22.2450 O   0  0  0  0  0  0  0  0  0  0  0  0
  -20.9510   -5.1813   23.8493 N   0  0  0  0  0  0  0  0  0  0  0  0
  -20.9153   -6.1399   24.0706 H   0  0  0  0  0  0  0  0  0  0  0  0
  -19.7204   -5.7695   21.8507 C   0  0  0  0  0  0  0  0  0  0  0  0
  -20.1173   -6.1236   20.6111 C   0  0  0  0  0  0  0  0  0  0  0  0
  -19.3700   -7.0670   19.9130 N   0  0  0  0  0  0  0  0  0  0  0  0
  -18.2264   -7.6725   20.4086 C   0  0  0  0  0  0  0  0  0  0  0  0
  -17.7871   -7.2815   21.7014 C   0  0  0  0  0  0  0  0  0  0  0  0
  -18.4964   -6.3658   22.3913 C   0  0  0  0  0  0  0  0  0  0  0  0
  -19.5438   -7.6049   18.6692 C   0  0  0  0  0  0  0  0  0  0  0  0
  -18.5966   -8.4816   18.4215 N   0  0  0  0  0  0  0  0  0  0  0  0
  -17.7635   -8.5242   19.5200 N   0  0  0  0  0  0  0  0  0  0  0  0
 14 18  1  0
 14 15  2  0
 18 19  2  0
 19 20  1  0
 20 21  1  0
 21 22  1  0
 22 23  2  0
 23 18  1  0
 20 24  1  0
 24 25  2  0
 25 26  1  0
 26 21  2  0
  6  7  2  0
  7  8  1  0
  8  9  2  0
  9 10  1  0
 10 11  2  0
 11  6  1  0
  8 12  1  0
 11  1  1  0
  1  2  1  0
  2  3  1  0
  3  4  1  0
  4  5  1  0
  5  1  1  0
  4 16  1  0
 14 16  1  0
 10 13  1  0
 16 17  1  0
M  END
> <minimizedAffinity>
-6.69095

> <CNNscore>
0.6370656490

> <CNNaffinity>
5.6904959679

> <CNN_VS>
3.6252195835

> <CNNaffinity_variance>
0.1054289266

$$$$
NS-C-142.sdf


 26 29  0  0  0  0  0  0  0  0999 V2000
  -20.3472   -5.0103   22.4043 N   0  0  0  0  0  0  0  0  0  0  0  0
  -21.2025   -4.6157   21.2894 C   0  0  0  0  0  0  0  0  0  0  0  0
  -21.7571   -3.2631   21.7216 C   0  0  0  0  0  0  0  0  0  0  0  0
  -20.5927   -2.6378   22.4809 C   0  0  0  0  0  0  0  0  0  0  0  0
  -19.9787   -3.8478   23.2228 C   0  0  0  0  0  0  0  0  0  0  0  0
  -18.3073   -6.3140   22.2549 C   0  0  0  0  0  0  0  0  0  0  0  0
  -17.6187   -7.5310   22.3335 C   0  0  0  0  0  0  0  0  0  0  0  0
  -18.3104   -8.6916   22.6415 C   0  0  0  0  0  0  0  0  0  0  0  0
  -19.6726   -8.6585   22.8742 C   0  0  0  0  0  0  0  0  0  0  0  0
  -20.3462   -7.4401   22.7927 C   0  0  0  0  0  0  0  0  0  0  0  0
  -19.6955   -6.2262   22.4746 C   0  0  0  0  0  0  0  0  0  0  0  0
  -17.6520   -9.8550   22.7175 F   0  0  0  0  0  0  0  0  0  0  0  0
  -21.6700   -7.4671   23.0210 F   0  0  0  0  0  0  0  0  0  0  0  0
  -20.8421   -0.2374   22.9480 C   0  0  0  0  0  0  0  0  0  0  0  0
  -20.2212    0.0937   21.9455 O   0  0  0  0  0  0  0  0  0  0  0  0
  -21.0277   -1.5441   23.3368 N   0  0  0  0  0  0  0  0  0  0  0  0
  -21.4578   -1.7407   24.2003 H   0  0  0  0  0  0  0  0  0  0  0  0
  -21.5103    0.7779   23.8166 C   0  0  0  0  0  0  0  0  0  0  0  0
  -22.0271    1.9135   23.3040 C   0  0  0  0  0  0  0  0  0  0  0  0
  -22.6633    2.8059   24.1613 N   0  0  0  0  0  0  0  0  0  0  0  0
  -22.8093    2.6026   25.5241 C   0  0  0  0  0  0  0  0  0  0  0  0
  -22.2932    1.3947   26.0644 C   0  0  0  0  0  0  0  0  0  0  0  0
  -21.6769    0.5163   25.2482 C   0  0  0  0  0  0  0  0  0  0  0  0
  -23.2581    4.0115   23.9182 C   0  0  0  0  0  0  0  0  0  0  0  0
  -23.7197    4.5199   25.0388 N   0  0  0  0  0  0  0  0  0  0  0  0
  -23.4370    3.6297   26.0537 N   0  0  0  0  0  0  0  0  0  0  0  0
 14 18  1  0
 14 15  2  0
 18 19  2  0
 19 20  1  0
 20 21  1  0
 21 22  1  0
 22 23  2  0
 23 18  1  0
 20 24  1  0
 24 25  2  0
 25 26  1  0
 26 21  2  0
  6  7  2  0
  7  8  1  0
  8  9  2  0
  9 10  1  0
 10 11  2  0
 11  6  1  0
  8 12  1  0
 11  1  1  0
  1  2  1  0
  2  3  1  0
  3  4  1  0
  4  5  1  0
  5  1  1  0
  4 16  1  0
 14 16  1  0
 10 13  1  0
 16 17  1  0
M  END
> <minimizedAffinity>
-6.67402

> <CNNscore>
0.6216455102

> <CNNaffinity>
5.5614757538

> <CNN_VS>
3.4572663307

> <CNNaffinity_variance>
0.0181576218

$$$$
NS-C-142.sdf


 26 29  0  0  0  0  0  0  0  0999 V2000
  -21.0697    0.2549   23.0431 N   0  0  0  0  0  0  0  0  0  0  0  0
  -21.8995    0.3490   21.8461 C   0  0  0  0  0  0  0  0  0  0  0  0
  -21.5512   -0.9134   21.0658 C   0  0  0  0  0  0  0  0  0  0  0  0
  -21.3277   -1.9481   22.1627 C   0  0  0  0  0  0  0  0  0  0  0  0
  -20.6268   -1.1269   23.2700 C   0  0  0  0  0  0  0  0  0  0  0  0
  -21.9446    1.2879   25.0557 C   0  0  0  0  0  0  0  0  0  0  0  0
  -21.8948    2.2682   26.0547 C   0  0  0  0  0  0  0  0  0  0  0  0
  -20.8927    3.2248   26.0272 C   0  0  0  0  0  0  0  0  0  0  0  0
  -19.9409    3.2188   25.0247 C   0  0  0  0  0  0  0  0  0  0  0  0
  -20.0020    2.2370   24.0361 C   0  0  0  0  0  0  0  0  0  0  0  0
  -21.0050    1.2414   24.0078 C   0  0  0  0  0  0  0  0  0  0  0  0
  -20.8445    4.1616   26.9827 F   0  0  0  0  0  0  0  0  0  0  0  0
  -19.0565    2.2826   23.0826 F   0  0  0  0  0  0  0  0  0  0  0  0
  -20.4720   -4.2346   22.4478 C   0  0  0  0  0  0  0  0  0  0  0  0
  -20.8857   -4.3212   23.5974 O   0  0  0  0  0  0  0  0  0  0  0  0
  -20.5791   -3.0985   21.6792 N   0  0  0  0  0  0  0  0  0  0  0  0
  -20.1462   -3.0637   20.7956 H   0  0  0  0  0  0  0  0  0  0  0  0
  -19.8537   -5.4056   21.7563 C   0  0  0  0  0  0  0  0  0  0  0  0
  -20.2741   -5.8083   20.5395 C   0  0  0  0  0  0  0  0  0  0  0  0
  -19.6375   -6.8878   19.9349 N   0  0  0  0  0  0  0  0  0  0  0  0
  -18.5828   -7.5842   20.5028 C   0  0  0  0  0  0  0  0  0  0  0  0
  -18.1166   -7.1458   21.7707 C   0  0  0  0  0  0  0  0  0  0  0  0
  -18.7186   -6.0990   22.3701 C   0  0  0  0  0  0  0  0  0  0  0  0
  -19.8587   -7.4995   18.7335 C   0  0  0  0  0  0  0  0  0  0  0  0
  -19.0217   -8.5007   18.5772 N   0  0  0  0  0  0  0  0  0  0  0  0
  -18.2148   -8.5542   19.6946 N   0  0  0  0  0  0  0  0  0  0  0  0
 14 18  1  0
 14 15  2  0
 18 19  2  0
 19 20  1  0
 20 21  1  0
 21 22  1  0
 22 23  2  0
 23 18  1  0
 20 24  1  0
 24 25  2  0
 25 26  1  0
 26 21  2  0
  6  7  2  0
  7  8  1  0
  8  9  2  0
  9 10  1  0
 10 11  2  0
 11  6  1  0
  8 12  1  0
 11  1  1  0
  1  2  1  0
  2  3  1  0
  3  4  1  0
  4  5  1  0
  5  1  1  0
  4 16  1  0
 14 16  1  0
 10 13  1  0
 16 17  1  0
M  END
> <minimizedAffinity>
-6.86129

> <CNNscore>
0.6090806127

> <CNNaffinity>
5.5053458214

> <CNN_VS>
3.3531994820

> <CNNaffinity_variance>
0.1510464996

$$$$
NS-C-142.sdf


 26 29  0  0  0  0  0  0  0  0999 V2000
  -21.2198   -4.4337   21.4339 N   0  0  0  0  0  0  0  0  0  0  0  0
  -22.5665   -4.5923   20.8939 C   0  0  0  0  0  0  0  0  0  0  0  0
  -23.2760   -3.3096   21.3123 C   0  0  0  0  0  0  0  0  0  0  0  0
  -22.1764   -2.2582   21.2165 C   0  0  0  0  0  0  0  0  0  0  0  0
  -20.9282   -3.0222   21.7163 C   0  0  0  0  0  0  0  0  0  0  0  0
  -20.1463   -6.2424   20.2258 C   0  0  0  0  0  0  0  0  0  0  0  0
  -19.1605   -7.2310   20.1156 C   0  0  0  0  0  0  0  0  0  0  0  0
  -18.2446   -7.4033   21.1411 C   0  0  0  0  0  0  0  0  0  0  0  0
  -18.2937   -6.6072   22.2700 C   0  0  0  0  0  0  0  0  0  0  0  0
  -19.2804   -5.6265   22.3672 C   0  0  0  0  0  0  0  0  0  0  0  0
  -20.2458   -5.4102   21.3575 C   0  0  0  0  0  0  0  0  0  0  0  0
  -17.3015   -8.3479   21.0353 F   0  0  0  0  0  0  0  0  0  0  0  0
  -19.2861   -4.8866   23.4886 F   0  0  0  0  0  0  0  0  0  0  0  0
  -22.6234    0.1562   21.3287 C   0  0  0  0  0  0  0  0  0  0  0  0
  -22.3578    0.3315   20.1460 O   0  0  0  0  0  0  0  0  0  0  0  0
  -22.5073   -1.0567   21.9679 N   0  0  0  0  0  0  0  0  0  0  0  0
  -22.6491   -1.1121   22.9405 H   0  0  0  0  0  0  0  0  0  0  0  0
  -23.1613    1.2637   22.1748 C   0  0  0  0  0  0  0  0  0  0  0  0
  -22.5000    1.7027   23.2653 C   0  0  0  0  0  0  0  0  0  0  0  0
  -23.0388    2.7577   23.9952 N   0  0  0  0  0  0  0  0  0  0  0  0
  -24.2223    3.4012   23.6709 C   0  0  0  0  0  0  0  0  0  0  0  0
  -24.9076    2.9627   22.5067 C   0  0  0  0  0  0  0  0  0  0  0  0
  -24.3986    1.9442   21.7849 C   0  0  0  0  0  0  0  0  0  0  0  0
  -22.5931    3.3855   25.1238 C   0  0  0  0  0  0  0  0  0  0  0  0
  -23.4376    4.3281   25.4780 N   0  0  0  0  0  0  0  0  0  0  0  0
  -24.4669    4.3389   24.5599 N   0  0  0  0  0  0  0  0  0  0  0  0
 14 18  1  0
 14 15  2  0
 18 19  2  0
 19 20  1  0
 20 21  1  0
 21 22  1  0
 22 23  2  0
 23 18  1  0
 20 24  1  0
 24 25  2  0
 25 26  1  0
 26 21  2  0
  6  7  2  0
  7  8  1  0
  8  9  2  0
  9 10  1  0
 10 11  2  0
 11  6  1  0
  8 12  1  0
 11  1  1  0
  1  2  1  0
  2  3  1  0
  3  4  1  0
  4  5  1  0
  5  1  1  0
  4 16  1  0
 14 16  1  0
 10 13  1  0
 16 17  1  0
M  END
> <minimizedAffinity>
-6.64189

> <CNNscore>
0.5903551579

> <CNNaffinity>
5.3445816040

> <CNN_VS>
3.1552014351

> <CNNaffinity_variance>
0.0289123785

$$$$
NS-C-142.sdf


 26 29  0  0  0  0  0  0  0  0999 V2000
  -21.3031   -3.9027   21.5247 N   0  0  0  0  0  0  0  0  0  0  0  0
  -22.6217   -3.9580   20.9013 C   0  0  0  0  0  0  0  0  0  0  0  0
  -23.2679   -2.6383   21.3070 C   0  0  0  0  0  0  0  0  0  0  0  0
  -22.0964   -1.6630   21.3025 C   0  0  0  0  0  0  0  0  0  0  0  0
  -20.9353   -2.5203   21.8578 C   0  0  0  0  0  0  0  0  0  0  0  0
  -20.2966   -5.7700   20.3487 C   0  0  0  0  0  0  0  0  0  0  0  0
  -19.3749   -6.8218   20.2740 C   0  0  0  0  0  0  0  0  0  0  0  0
  -18.5223   -7.0632   21.3393 C   0  0  0  0  0  0  0  0  0  0  0  0
  -18.5717   -6.2743   22.4734 C   0  0  0  0  0  0  0  0  0  0  0  0
  -19.4942   -5.2302   22.5348 C   0  0  0  0  0  0  0  0  0  0  0  0
  -20.3940   -4.9418   21.4834 C   0  0  0  0  0  0  0  0  0  0  0  0
  -17.6404   -8.0682   21.2676 F   0  0  0  0  0  0  0  0  0  0  0  0
  -19.5038   -4.5003   23.6627 F   0  0  0  0  0  0  0  0  0  0  0  0
  -22.0088    0.7769   21.5873 C   0  0  0  0  0  0  0  0  0  0  0  0
  -21.3200    0.9392   20.5876 O   0  0  0  0  0  0  0  0  0  0  0  0
  -22.3915   -0.4568   22.0613 N   0  0  0  0  0  0  0  0  0  0  0  0
  -22.8684   -0.5240   22.9199 H   0  0  0  0  0  0  0  0  0  0  0  0
  -22.5462    1.9399   22.3556 C   0  0  0  0  0  0  0  0  0  0  0  0
  -23.7885    1.9245   22.8807 C   0  0  0  0  0  0  0  0  0  0  0  0
  -24.2201    3.0272   23.6114 N   0  0  0  0  0  0  0  0  0  0  0  0
  -23.4482    4.1540   23.8446 C   0  0  0  0  0  0  0  0  0  0  0  0
  -22.1287    4.1632   23.3193 C   0  0  0  0  0  0  0  0  0  0  0  0
  -21.6919    3.1020   22.6119 C   0  0  0  0  0  0  0  0  0  0  0  0
  -25.4089    3.2778   24.2361 C   0  0  0  0  0  0  0  0  0  0  0  0
  -25.3816    4.4666   24.7957 N   0  0  0  0  0  0  0  0  0  0  0  0
  -24.1426    5.0204   24.5493 N   0  0  0  0  0  0  0  0  0  0  0  0
 14 18  1  0
 14 15  2  0
 18 19  2  0
 19 20  1  0
 20 21  1  0
 21 22  1  0
 22 23  2  0
 23 18  1  0
 20 24  1  0
 24 25  2  0
 25 26  1  0
 26 21  2  0
  6  7  2  0
  7  8  1  0
  8  9  2  0
  9 10  1  0
 10 11  2  0
 11  6  1  0
  8 12  1  0
 11  1  1  0
  1  2  1  0
  2  3  1  0
  3  4  1  0
  4  5  1  0
  5  1  1  0
  4 16  1  0
 14 16  1  0
 10 13  1  0
 16 17  1  0
M  END
> <minimizedAffinity>
-6.97529

> <CNNscore>
0.5872155428

> <CNNaffinity>
5.3801188469

> <CNN_VS>
3.1592893600

> <CNNaffinity_variance>
0.0500403829

$$$$
NS-C-142.sdf


 26 29  0  0  0  0  0  0  0  0999 V2000
  -20.7988    1.4271   23.4123 N   0  0  0  0  0  0  0  0  0  0  0  0
  -19.9485    0.4872   22.6887 C   0  0  0  0  0  0  0  0  0  0  0  0
  -20.8716   -0.0837   21.6182 C   0  0  0  0  0  0  0  0  0  0  0  0
  -21.7490    1.1063   21.2469 C   0  0  0  0  0  0  0  0  0  0  0  0
  -21.9664    1.8088   22.6073 C   0  0  0  0  0  0  0  0  0  0  0  0
  -21.2512    2.2938   25.6320 C   0  0  0  0  0  0  0  0  0  0  0  0
  -20.8566    2.9827   26.7858 C   0  0  0  0  0  0  0  0  0  0  0  0
  -19.5789    3.5131   26.8644 C   0  0  0  0  0  0  0  0  0  0  0  0
  -18.6900    3.3664   25.8160 C   0  0  0  0  0  0  0  0  0  0  0  0
  -19.0956    2.6782   24.6728 C   0  0  0  0  0  0  0  0  0  0  0  0
  -20.3880    2.1231   24.5325 C   0  0  0  0  0  0  0  0  0  0  0  0
  -19.2013    4.1711   27.9677 F   0  0  0  0  0  0  0  0  0  0  0  0
  -18.1943    2.5716   23.6822 F   0  0  0  0  0  0  0  0  0  0  0  0
  -22.9371    0.3552   19.2304 C   0  0  0  0  0  0  0  0  0  0  0  0
  -21.9500    0.4815   18.5165 O   0  0  0  0  0  0  0  0  0  0  0  0
  -22.9654    0.6917   20.5643 N   0  0  0  0  0  0  0  0  0  0  0  0
  -23.8148    0.6516   21.0604 H   0  0  0  0  0  0  0  0  0  0  0  0
  -24.2019   -0.2422   18.7058 C   0  0  0  0  0  0  0  0  0  0  0  0
  -24.2108   -1.0158   17.6008 C   0  0  0  0  0  0  0  0  0  0  0  0
  -25.4168   -1.5673   17.1796 N   0  0  0  0  0  0  0  0  0  0  0  0
  -26.6257   -1.3783   17.8298 C   0  0  0  0  0  0  0  0  0  0  0  0
  -26.6170   -0.5890   19.0106 C   0  0  0  0  0  0  0  0  0  0  0  0
  -25.4571   -0.0496   19.4360 C   0  0  0  0  0  0  0  0  0  0  0  0
  -25.7113   -2.3666   16.1115 C   0  0  0  0  0  0  0  0  0  0  0  0
  -26.9973   -2.6369   16.0925 N   0  0  0  0  0  0  0  0  0  0  0  0
  -27.5754   -2.0132   17.1784 N   0  0  0  0  0  0  0  0  0  0  0  0
 14 18  1  0
 14 15  2  0
 18 19  2  0
 19 20  1  0
 20 21  1  0
 21 22  1  0
 22 23  2  0
 23 18  1  0
 20 24  1  0
 24 25  2  0
 25 26  1  0
 26 21  2  0
  6  7  2  0
  7  8  1  0
  8  9  2  0
  9 10  1  0
 10 11  2  0
 11  6  1  0
  8 12  1  0
 11  1  1  0
  1  2  1  0
  2  3  1  0
  3  4  1  0
  4  5  1  0
  5  1  1  0
  4 16  1  0
 14 16  1  0
 10 13  1  0
 16 17  1  0
M  END
> <minimizedAffinity>
-6.65093

> <CNNscore>
0.5754504800

> <CNNaffinity>
5.5221419334

> <CNN_VS>
3.1777191162

> <CNNaffinity_variance>
0.0867993236

$$$$
NS-C-142.sdf


 26 29  0  0  0  0  0  0  0  0999 V2000
  -20.1772   -5.2956   22.1569 N   0  0  0  0  0  0  0  0  0  0  0  0
  -20.4464   -5.5832   23.5622 C   0  0  0  0  0  0  0  0  0  0  0  0
  -20.9219   -4.2461   24.1191 C   0  0  0  0  0  0  0  0  0  0  0  0
  -21.7038   -3.6450   22.9568 C   0  0  0  0  0  0  0  0  0  0  0  0
  -20.8723   -4.0757   21.7260 C   0  0  0  0  0  0  0  0  0  0  0  0
  -20.2962   -6.5199   20.0664 C   0  0  0  0  0  0  0  0  0  0  0  0
  -19.7712   -7.4391   19.1495 C   0  0  0  0  0  0  0  0  0  0  0  0
  -18.5706   -8.0735   19.4258 C   0  0  0  0  0  0  0  0  0  0  0  0
  -17.8858   -7.8056   20.5963 C   0  0  0  0  0  0  0  0  0  0  0  0
  -18.4197   -6.8881   21.5008 C   0  0  0  0  0  0  0  0  0  0  0  0
  -19.6435   -6.2169   21.2769 C   0  0  0  0  0  0  0  0  0  0  0  0
  -18.0681   -8.9518   18.5489 F   0  0  0  0  0  0  0  0  0  0  0  0
  -17.7164   -6.6711   22.6248 F   0  0  0  0  0  0  0  0  0  0  0  0
  -20.9174   -1.3340   22.6694 C   0  0  0  0  0  0  0  0  0  0  0  0
  -19.8265   -1.6846   22.2368 O   0  0  0  0  0  0  0  0  0  0  0  0
  -21.8840   -2.2090   23.1088 N   0  0  0  0  0  0  0  0  0  0  0  0
  -22.7034   -1.8611   23.5292 H   0  0  0  0  0  0  0  0  0  0  0  0
  -21.3122    0.1065   22.7007 C   0  0  0  0  0  0  0  0  0  0  0  0
  -20.4319    1.0716   23.0367 C   0  0  0  0  0  0  0  0  0  0  0  0
  -20.8531    2.3976   23.0182 N   0  0  0  0  0  0  0  0  0  0  0  0
  -22.1316    2.8010   22.6682 C   0  0  0  0  0  0  0  0  0  0  0  0
  -23.0541    1.7914   22.2849 C   0  0  0  0  0  0  0  0  0  0  0  0
  -22.6627    0.5014   22.2930 C   0  0  0  0  0  0  0  0  0  0  0  0
  -20.1868    3.5529   23.3144 C   0  0  0  0  0  0  0  0  0  0  0  0
  -20.9896    4.5841   23.1749 N   0  0  0  0  0  0  0  0  0  0  0  0
  -22.2184    4.1096   22.7659 N   0  0  0  0  0  0  0  0  0  0  0  0
 14 18  1  0
 14 15  2  0
 18 19  2  0
 19 20  1  0
 20 21  1  0
 21 22  1  0
 22 23  2  0
 23 18  1  0
 20 24  1  0
 24 25  2  0
 25 26  1  0
 26 21  2  0
  6  7  2  0
  7  8  1  0
  8  9  2  0
  9 10  1  0
 10 11  2  0
 11  6  1  0
  8 12  1  0
 11  1  1  0
  1  2  1  0
  2  3  1  0
  3  4  1  0
  4  5  1  0
  5  1  1  0
  4 16  1  0
 14 16  1  0
 10 13  1  0
 16 17  1  0
M  END
> <minimizedAffinity>
-6.90470

> <CNNscore>
0.5098654032

> <CNNaffinity>
5.7615237236

> <CNN_VS>
2.9376015663

> <CNNaffinity_variance>
0.0087392190

$$$$
NS-C-142.sdf


 26 29  0  0  0  0  0  0  0  0999 V2000
  -21.2021    0.3964   24.3654 N   0  0  0  0  0  0  0  0  0  0  0  0
  -20.9979    1.0014   23.0530 C   0  0  0  0  0  0  0  0  0  0  0  0
  -20.4254   -0.1370   22.2163 C   0  0  0  0  0  0  0  0  0  0  0  0
  -21.1551   -1.3628   22.7536 C   0  0  0  0  0  0  0  0  0  0  0  0
  -21.2486   -1.0684   24.2689 C   0  0  0  0  0  0  0  0  0  0  0  0
  -21.9427    2.4712   25.3801 C   0  0  0  0  0  0  0  0  0  0  0  0
  -22.4008    3.2052   26.4814 C   0  0  0  0  0  0  0  0  0  0  0  0
  -22.5710    2.5740   27.7032 C   0  0  0  0  0  0  0  0  0  0  0  0
  -22.2951    1.2268   27.8441 C   0  0  0  0  0  0  0  0  0  0  0  0
  -21.8395    0.5076   26.7395 C   0  0  0  0  0  0  0  0  0  0  0  0
  -21.6393    1.0991   25.4713 C   0  0  0  0  0  0  0  0  0  0  0  0
  -23.0098    3.2754   28.7559 F   0  0  0  0  0  0  0  0  0  0  0  0
  -21.5803   -0.7962   26.9346 F   0  0  0  0  0  0  0  0  0  0  0  0
  -21.1821   -3.7570   22.1976 C   0  0  0  0  0  0  0  0  0  0  0  0
  -22.3869   -3.8602   22.3918 O   0  0  0  0  0  0  0  0  0  0  0  0
  -20.4696   -2.5984   22.4054 N   0  0  0  0  0  0  0  0  0  0  0  0
  -19.4890   -2.6053   22.3179 H   0  0  0  0  0  0  0  0  0  0  0  0
  -20.3843   -4.8963   21.6525 C   0  0  0  0  0  0  0  0  0  0  0  0
  -19.3947   -5.4698   22.3675 C   0  0  0  0  0  0  0  0  0  0  0  0
  -18.7081   -6.5470   21.8158 N   0  0  0  0  0  0  0  0  0  0  0  0
  -18.9786   -7.0821   20.5666 C   0  0  0  0  0  0  0  0  0  0  0  0
  -20.0392   -6.5012   19.8218 C   0  0  0  0  0  0  0  0  0  0  0  0
  -20.7183   -5.4592   20.3419 C   0  0  0  0  0  0  0  0  0  0  0  0
  -17.6771   -7.2974   22.3059 C   0  0  0  0  0  0  0  0  0  0  0  0
  -17.3276   -8.2105   21.4276 N   0  0  0  0  0  0  0  0  0  0  0  0
  -18.1501   -8.0754   20.3287 N   0  0  0  0  0  0  0  0  0  0  0  0
 14 18  1  0
 14 15  2  0
 18 19  2  0
 19 20  1  0
 20 21  1  0
 21 22  1  0
 22 23  2  0
 23 18  1  0
 20 24  1  0
 24 25  2  0
 25 26  1  0
 26 21  2  0
  6  7  2  0
  7  8  1  0
  8  9  2  0
  9 10  1  0
 10 11  2  0
 11  6  1  0
  8 12  1  0
 11  1  1  0
  1  2  1  0
  2  3  1  0
  3  4  1  0
  4  5  1  0
  5  1  1  0
  4 16  1  0
 14 16  1  0
 10 13  1  0
 16 17  1  0
M  END
> <minimizedAffinity>
-6.59992

> <CNNscore>
0.4933316708

> <CNNaffinity>
5.6825184822

> <CNN_VS>
2.8033664227

> <CNNaffinity_variance>
0.0039231111

$$$$
