7uj4


 45 49  0  0  0  0  0  0  0  0999 V2000
  -21.7102   -0.4633   22.8232 N   0  0  0  0  0  0  0  0  0  0  0  0
  -20.1201   -5.0751   22.9812 N   0  0  0  0  0  0  0  0  0  0  0  0
  -20.6921   -1.3815   22.3410 C   0  0  0  0  0  0  0  0  0  0  0  0
  -22.5673   -1.3774   23.5692 C   0  0  0  0  0  0  0  0  0  0  0  0
  -21.4766   -2.4671   23.1978 C   0  0  0  0  0  0  0  0  0  0  0  0
  -20.6679   -3.0525   24.3547 C   0  0  0  0  0  0  0  0  0  0  0  0
  -19.5771   -3.9659   23.8443 C   0  0  0  0  0  0  0  0  0  0  0  0
  -22.0351   -3.6195   22.3675 C   0  0  0  0  0  0  0  0  0  0  0  0
  -20.9512   -4.5369   21.8578 C   0  0  0  0  0  0  0  0  0  0  0  0
  -21.7851    3.6122   22.7947 N   0  0  0  0  0  0  0  0  0  0  0  0
  -20.5910    1.5598   22.8464 N   0  0  0  0  0  0  0  0  0  0  0  0
  -22.9360    1.5846   22.7004 C   0  0  0  0  0  0  0  0  0  0  0  0
  -22.9254    2.9566   22.7155 C   0  0  0  0  0  0  0  0  0  0  0  0
  -20.6559    2.8949   22.8025 C   0  0  0  0  0  0  0  0  0  0  0  0
  -21.7332    0.8920   22.7595 C   0  0  0  0  0  0  0  0  0  0  0  0
  -24.1262    0.9437   22.6173 O   0  0  0  0  0  0  0  0  0  0  0  0
  -26.1470    0.5990   21.3835 C   0  0  0  0  0  0  0  0  0  0  0  0
  -26.7632    0.3730   20.1515 C   0  0  0  0  0  0  0  0  0  0  0  0
  -25.9813    0.3357   19.0237 C   0  0  0  0  0  0  0  0  0  0  0  0
  -24.6154    0.4943   19.0293 C   0  0  0  0  0  0  0  0  0  0  0  0
  -24.0013    0.6929   20.2508 C   0  0  0  0  0  0  0  0  0  0  0  0
  -24.7535    0.6974   21.4054 C   0  0  0  0  0  0  0  0  0  0  0  0
  -26.5678    0.1256   17.8253 F   0  0  0  0  0  0  0  0  0  0  0  0
  -27.6558    1.8129   22.9969 N   0  0  0  0  0  0  0  0  0  0  0  0
  -26.9058   -0.2262   23.4483 O   0  0  0  0  0  0  0  0  0  0  0  0
  -26.9319    0.7244   22.6792 C   0  0  0  0  0  0  0  0  0  0  0  0
  -26.5145    3.9691   22.8366 C   0  0  0  0  0  0  0  0  0  0  0  0
  -27.5877    3.0770   22.2530 C   0  0  0  0  0  0  0  0  0  0  0  0
  -28.9421    3.7335   22.1754 C   0  0  0  0  0  0  0  0  0  0  0  0
  -28.5128    1.8390   24.1914 C   0  0  0  0  0  0  0  0  0  0  0  0
  -27.7741    2.1900   25.4487 C   0  0  0  0  0  0  0  0  0  0  0  0
  -19.0005   -5.8772   22.3926 C   0  0  0  0  0  0  0  0  0  0  0  0
  -19.3971   -6.6675   21.1451 C   0  0  0  0  0  0  0  0  0  0  0  0
  -18.2447   -7.5146   20.5859 C   0  0  0  0  0  0  0  0  0  0  0  0
  -18.6503   -8.3237   19.3653 C   0  0  0  0  0  0  0  0  0  0  0  0
  -20.6343   -7.5247   21.4027 C   0  0  0  0  0  0  0  0  0  0  0  0
  -21.0455   -8.2790   20.1467 C   0  0  0  0  0  0  0  0  0  0  0  0
  -19.8984   -9.1358   19.6357 C   0  0  0  0  0  0  0  0  0  0  0  0
  -20.3344   -9.8318   18.4126 N   0  0  0  0  0  0  0  0  0  0  0  0
  -20.8136   -9.1314   17.8468 H   0  0  0  0  0  0  0  0  0  0  0  0
  -21.3110  -11.1378   18.4317 S   0  0  0  0  0  0  0  0  0  0  0  0
  -20.6582  -12.0942   17.5893 O   0  0  0  0  0  0  0  0  0  0  0  0
  -21.5452  -11.4610   19.8105 O   0  0  0  0  0  0  0  0  0  0  0  0
  -22.8372  -10.6170   17.6668 C   0  0  0  0  0  0  0  0  0  0  0  0
  -24.0686  -11.0805   18.4185 C   0  0  0  0  0  0  0  0  0  0  0  0
 27 28  1  0
 24 30  1  0
 24 26  1  0
 41 42  2  0
 41 43  2  0
 41 44  1  0
 24 28  1  0
 28 29  1  0
 10 14  2  0
 16 12  1  0
 11 15  2  0
 30 31  1  0
  1  3  1  0
  1  4  1  0
  2 32  1  0
 25 26  2  0
 26 17  1  0
 41 39  1  0
 17 18  2  0
 17 22  1  0
 18 19  1  0
 19 20  2  0
 19 23  1  0
 20 21  1  0
 21 22  2  0
 16 22  1  0
 12 13  2  0
 12 15  1  0
 10 13  1  0
 11 14  1  0
  1 15  1  0
  3  5  1  0
  4  5  1  0
  5  6  1  0
  5  8  1  0
  6  7  1  0
  2  7  1  0
  8  9  1  0
  2  9  1  0
 32 33  1  0
 33 34  1  0
 33 36  1  0
 34 35  1  0
 35 38  1  0
 36 37  1  0
 37 38  1  0
 39 38  1  0
 44 45  1  0
 39 40  1  0
M  END
> <minimizedAffinity>
-7.72335

> <CNNscore>
0.3111884594

> <CNNaffinity>
6.7079710960

> <CNN_VS>
2.0874431133

> <CNNaffinity_variance>
0.4017254412

$$$$
7uj4


 45 49  0  0  0  0  0  0  0  0999 V2000
  -21.2952    0.6093   22.1866 N   0  0  0  0  0  0  0  0  0  0  0  0
  -19.0768    3.7467   25.1962 N   0  0  0  0  0  0  0  0  0  0  0  0
  -20.8425    0.8216   23.5512 C   0  0  0  0  0  0  0  0  0  0  0  0
  -20.9848    1.9051   21.5941 C   0  0  0  0  0  0  0  0  0  0  0  0
  -20.3608    2.2383   23.0134 C   0  0  0  0  0  0  0  0  0  0  0  0
  -18.8477    2.4448   23.0678 C   0  0  0  0  0  0  0  0  0  0  0  0
  -18.3757    2.6129   24.4939 C   0  0  0  0  0  0  0  0  0  0  0  0
  -21.0345    3.4201   23.7052 C   0  0  0  0  0  0  0  0  0  0  0  0
  -20.5651    3.5953   25.1282 C   0  0  0  0  0  0  0  0  0  0  0  0
  -22.5482   -2.7636   20.2708 N   0  0  0  0  0  0  0  0  0  0  0  0
  -20.8294   -1.2435   20.8842 N   0  0  0  0  0  0  0  0  0  0  0  0
  -23.0321   -0.9397   21.6433 C   0  0  0  0  0  0  0  0  0  0  0  0
  -23.4238   -2.0680   20.9680 C   0  0  0  0  0  0  0  0  0  0  0  0
  -21.2729   -2.3601   20.2965 C   0  0  0  0  0  0  0  0  0  0  0  0
  -21.7021   -0.5417   21.5941 C   0  0  0  0  0  0  0  0  0  0  0  0
  -23.9587   -0.2498   22.3504 O   0  0  0  0  0  0  0  0  0  0  0  0
  -24.5280    0.7933   24.4270 C   0  0  0  0  0  0  0  0  0  0  0  0
  -24.6212    0.7013   25.8167 C   0  0  0  0  0  0  0  0  0  0  0  0
  -24.3011   -0.4905   26.4185 C   0  0  0  0  0  0  0  0  0  0  0  0
  -23.8772   -1.6068   25.7367 C   0  0  0  0  0  0  0  0  0  0  0  0
  -23.7603   -1.5095   24.3635 C   0  0  0  0  0  0  0  0  0  0  0  0
  -24.0374   -0.3158   23.7332 C   0  0  0  0  0  0  0  0  0  0  0  0
  -24.3953   -0.5933   27.7619 F   0  0  0  0  0  0  0  0  0  0  0  0
  -26.1974    2.3426   23.3473 N   0  0  0  0  0  0  0  0  0  0  0  0
  -24.0296    2.8172   23.3426 O   0  0  0  0  0  0  0  0  0  0  0  0
  -24.9236    2.0461   23.6624 C   0  0  0  0  0  0  0  0  0  0  0  0
  -27.7098    0.8434   22.1464 C   0  0  0  0  0  0  0  0  0  0  0  0
  -27.3104    1.3966   23.4964 C   0  0  0  0  0  0  0  0  0  0  0  0
  -28.4534    2.0204   24.2554 C   0  0  0  0  0  0  0  0  0  0  0  0
  -26.5528    3.6302   22.7326 C   0  0  0  0  0  0  0  0  0  0  0  0
  -26.2680    4.8109   23.6127 C   0  0  0  0  0  0  0  0  0  0  0  0
  -18.6768    3.7970   26.6387 C   0  0  0  0  0  0  0  0  0  0  0  0
  -19.7545    3.2867   27.5960 C   0  0  0  0  0  0  0  0  0  0  0  0
  -20.7731    4.3707   27.9776 C   0  0  0  0  0  0  0  0  0  0  0  0
  -21.8613    3.8529   28.9033 C   0  0  0  0  0  0  0  0  0  0  0  0
  -20.4526    2.0498   27.0352 C   0  0  0  0  0  0  0  0  0  0  0  0
  -21.4973    1.5253   28.0094 C   0  0  0  0  0  0  0  0  0  0  0  0
  -22.5121    2.6073   28.3417 C   0  0  0  0  0  0  0  0  0  0  0  0
  -23.4907    2.0621   29.2986 N   0  0  0  0  0  0  0  0  0  0  0  0
  -23.5948    1.0754   29.0621 H   0  0  0  0  0  0  0  0  0  0  0  0
  -25.0046    2.6483   29.4548 S   0  0  0  0  0  0  0  0  0  0  0  0
  -24.9126    3.6236   30.4991 O   0  0  0  0  0  0  0  0  0  0  0  0
  -25.4279    3.0588   28.1461 O   0  0  0  0  0  0  0  0  0  0  0  0
  -26.0037    1.2772   30.0093 C   0  0  0  0  0  0  0  0  0  0  0  0
  -25.9592    1.0766   31.5105 C   0  0  0  0  0  0  0  0  0  0  0  0
 27 28  1  0
 24 30  1  0
 24 26  1  0
 41 42  2  0
 41 43  2  0
 41 44  1  0
 24 28  1  0
 28 29  1  0
 10 14  2  0
 16 12  1  0
 11 15  2  0
 30 31  1  0
  1  3  1  0
  1  4  1  0
  2 32  1  0
 25 26  2  0
 26 17  1  0
 41 39  1  0
 17 18  2  0
 17 22  1  0
 18 19  1  0
 19 20  2  0
 19 23  1  0
 20 21  1  0
 21 22  2  0
 16 22  1  0
 12 13  2  0
 12 15  1  0
 10 13  1  0
 11 14  1  0
  1 15  1  0
  3  5  1  0
  4  5  1  0
  5  6  1  0
  5  8  1  0
  6  7  1  0
  2  7  1  0
  8  9  1  0
  2  9  1  0
 32 33  1  0
 33 34  1  0
 33 36  1  0
 34 35  1  0
 35 38  1  0
 36 37  1  0
 37 38  1  0
 39 38  1  0
 44 45  1  0
 39 40  1  0
M  END
> <minimizedAffinity>
-7.77539

> <CNNscore>
0.2879994810

> <CNNaffinity>
7.8076176643

> <CNN_VS>
2.2485897541

> <CNNaffinity_variance>
0.2248929739

$$$$
7uj4


 45 49  0  0  0  0  0  0  0  0999 V2000
  -21.3576   -2.1804   22.9588 N   0  0  0  0  0  0  0  0  0  0  0  0
  -22.8105   -5.3584   26.3663 N   0  0  0  0  0  0  0  0  0  0  0  0
  -22.5094   -2.8539   23.5351 C   0  0  0  0  0  0  0  0  0  0  0  0
  -20.2998   -2.6442   23.8490 C   0  0  0  0  0  0  0  0  0  0  0  0
  -21.4459   -3.5150   24.5149 C   0  0  0  0  0  0  0  0  0  0  0  0
  -21.3263   -5.0319   24.3743 C   0  0  0  0  0  0  0  0  0  0  0  0
  -22.5504   -5.7245   24.9281 C   0  0  0  0  0  0  0  0  0  0  0  0
  -21.6763   -3.1832   25.9866 C   0  0  0  0  0  0  0  0  0  0  0  0
  -22.8950   -3.8742   26.5462 C   0  0  0  0  0  0  0  0  0  0  0  0
  -20.9390   -0.0888   19.4851 N   0  0  0  0  0  0  0  0  0  0  0  0
  -21.1433   -2.1446   20.6569 N   0  0  0  0  0  0  0  0  0  0  0  0
  -21.2238   -0.0940   21.8010 C   0  0  0  0  0  0  0  0  0  0  0  0
  -21.0593    0.5773   20.6158 C   0  0  0  0  0  0  0  0  0  0  0  0
  -21.0394   -1.4218   19.5364 C   0  0  0  0  0  0  0  0  0  0  0  0
  -21.2724   -1.4823   21.7983 C   0  0  0  0  0  0  0  0  0  0  0  0
  -21.3449    0.6230   22.9437 O   0  0  0  0  0  0  0  0  0  0  0  0
  -21.9607    2.8183   23.6691 C   0  0  0  0  0  0  0  0  0  0  0  0
  -22.9553    3.7872   23.8119 C   0  0  0  0  0  0  0  0  0  0  0  0
  -24.2124    3.5127   23.3329 C   0  0  0  0  0  0  0  0  0  0  0  0
  -24.5633    2.3289   22.7279 C   0  0  0  0  0  0  0  0  0  0  0  0
  -23.5863    1.3594   22.6085 C   0  0  0  0  0  0  0  0  0  0  0  0
  -22.3249    1.5893   23.1133 C   0  0  0  0  0  0  0  0  0  0  0  0
  -25.1806    4.4460   23.4586 F   0  0  0  0  0  0  0  0  0  0  0  0
  -20.0597    2.7077   25.3205 N   0  0  0  0  0  0  0  0  0  0  0  0
  -19.7637    3.5618   23.2938 O   0  0  0  0  0  0  0  0  0  0  0  0
  -20.5234    3.0518   24.1055 C   0  0  0  0  0  0  0  0  0  0  0  0
  -21.4473    0.8893   26.1838 C   0  0  0  0  0  0  0  0  0  0  0  0
  -20.9257    2.2877   26.4294 C   0  0  0  0  0  0  0  0  0  0  0  0
  -22.0119    3.3014   26.6822 C   0  0  0  0  0  0  0  0  0  0  0  0
  -18.6321    2.8204   25.6538 C   0  0  0  0  0  0  0  0  0  0  0  0
  -18.3040    4.0336   26.4725 C   0  0  0  0  0  0  0  0  0  0  0  0
  -24.0988   -5.9611   26.8358 C   0  0  0  0  0  0  0  0  0  0  0  0
  -24.1636   -7.4804   26.6757 C   0  0  0  0  0  0  0  0  0  0  0  0
  -23.9397   -8.2283   27.9981 C   0  0  0  0  0  0  0  0  0  0  0  0
  -24.0366   -9.7367   27.8424 C   0  0  0  0  0  0  0  0  0  0  0  0
  -25.4709   -7.9123   26.0150 C   0  0  0  0  0  0  0  0  0  0  0  0
  -25.5124   -9.4215   25.8244 C   0  0  0  0  0  0  0  0  0  0  0  0
  -25.3237  -10.1353   27.1532 C   0  0  0  0  0  0  0  0  0  0  0  0
  -25.3529  -11.5895   26.9189 N   0  0  0  0  0  0  0  0  0  0  0  0
  -25.3614  -11.7105   25.9061 H   0  0  0  0  0  0  0  0  0  0  0  0
  -26.5286  -12.5609   27.4967 S   0  0  0  0  0  0  0  0  0  0  0  0
  -27.2320  -11.7559   28.4493 O   0  0  0  0  0  0  0  0  0  0  0  0
  -27.2341  -13.0805   26.3596 O   0  0  0  0  0  0  0  0  0  0  0  0
  -25.6910  -13.8891   28.3451 C   0  0  0  0  0  0  0  0  0  0  0  0
  -26.4527  -15.1983   28.3006 C   0  0  0  0  0  0  0  0  0  0  0  0
 27 28  1  0
 24 30  1  0
 24 26  1  0
 41 42  2  0
 41 43  2  0
 41 44  1  0
 24 28  1  0
 28 29  1  0
 10 14  2  0
 16 12  1  0
 11 15  2  0
 30 31  1  0
  1  3  1  0
  1  4  1  0
  2 32  1  0
 25 26  2  0
 26 17  1  0
 41 39  1  0
 17 18  2  0
 17 22  1  0
 18 19  1  0
 19 20  2  0
 19 23  1  0
 20 21  1  0
 21 22  2  0
 16 22  1  0
 12 13  2  0
 12 15  1  0
 10 13  1  0
 11 14  1  0
  1 15  1  0
  3  5  1  0
  4  5  1  0
  5  6  1  0
  5  8  1  0
  6  7  1  0
  2  7  1  0
  8  9  1  0
  2  9  1  0
 32 33  1  0
 33 34  1  0
 33 36  1  0
 34 35  1  0
 35 38  1  0
 36 37  1  0
 37 38  1  0
 39 38  1  0
 44 45  1  0
 39 40  1  0
M  END
> <minimizedAffinity>
-7.55083

> <CNNscore>
0.2731015682

> <CNNaffinity>
6.5302639008

> <CNN_VS>
1.7834253311

> <CNNaffinity_variance>
0.8015811443

$$$$
7uj4


 45 49  0  0  0  0  0  0  0  0999 V2000
  -22.0316    0.8995   21.3835 N   0  0  0  0  0  0  0  0  0  0  0  0
  -26.9022    1.2097   21.4306 N   0  0  0  0  0  0  0  0  0  0  0  0
  -23.1633    1.6831   21.8497 C   0  0  0  0  0  0  0  0  0  0  0  0
  -22.7194   -0.2318   20.7723 C   0  0  0  0  0  0  0  0  0  0  0  0
  -24.0409    0.5665   21.1349 C   0  0  0  0  0  0  0  0  0  0  0  0
  -24.8751    1.0833   19.9635 C   0  0  0  0  0  0  0  0  0  0  0  0
  -26.0202    1.9407   20.4518 C   0  0  0  0  0  0  0  0  0  0  0  0
  -24.9620   -0.1936   22.0852 C   0  0  0  0  0  0  0  0  0  0  0  0
  -26.1091    0.6559   22.5736 C   0  0  0  0  0  0  0  0  0  0  0  0
  -18.0496    1.7713   21.3639 N   0  0  0  0  0  0  0  0  0  0  0  0
  -19.9708    0.8245   20.3376 N   0  0  0  0  0  0  0  0  0  0  0  0
  -20.1303    1.9217   22.4091 C   0  0  0  0  0  0  0  0  0  0  0  0
  -18.7828    2.1786   22.3802 C   0  0  0  0  0  0  0  0  0  0  0  0
  -18.6756    1.1574   20.3535 C   0  0  0  0  0  0  0  0  0  0  0  0
  -20.7175    1.2369   21.3527 C   0  0  0  0  0  0  0  0  0  0  0  0
  -20.8531    2.3559   23.4690 O   0  0  0  0  0  0  0  0  0  0  0  0
  -21.0802    3.1949   25.6982 C   0  0  0  0  0  0  0  0  0  0  0  0
  -20.4640    3.6483   26.8657 C   0  0  0  0  0  0  0  0  0  0  0  0
  -19.0926    3.6395   26.9299 C   0  0  0  0  0  0  0  0  0  0  0  0
  -18.2774    3.2220   25.9043 C   0  0  0  0  0  0  0  0  0  0  0  0
  -18.8854    2.7967   24.7389 C   0  0  0  0  0  0  0  0  0  0  0  0
  -20.2586    2.8294   24.6289 C   0  0  0  0  0  0  0  0  0  0  0  0
  -18.4858    4.0685   28.0577 F   0  0  0  0  0  0  0  0  0  0  0  0
  -23.3669    2.3961   26.3954 N   0  0  0  0  0  0  0  0  0  0  0  0
  -23.1079    3.7208   24.6340 O   0  0  0  0  0  0  0  0  0  0  0  0
  -22.5907    3.1027   25.5540 C   0  0  0  0  0  0  0  0  0  0  0  0
  -23.2186    0.0409   27.0343 C   0  0  0  0  0  0  0  0  0  0  0  0
  -22.8364    1.4594   27.3941 C   0  0  0  0  0  0  0  0  0  0  0  0
  -23.2496    1.8613   28.7867 C   0  0  0  0  0  0  0  0  0  0  0  0
  -24.8337    2.4464   26.3064 C   0  0  0  0  0  0  0  0  0  0  0  0
  -25.5165    2.3462   27.6382 C   0  0  0  0  0  0  0  0  0  0  0  0
  -27.9441    2.1310   21.9864 C   0  0  0  0  0  0  0  0  0  0  0  0
  -28.4634    1.7159   23.3635 C   0  0  0  0  0  0  0  0  0  0  0  0
  -27.9528    2.6249   24.4910 C   0  0  0  0  0  0  0  0  0  0  0  0
  -28.4958    2.2299   25.8540 C   0  0  0  0  0  0  0  0  0  0  0  0
  -29.9879    1.6277   23.3769 C   0  0  0  0  0  0  0  0  0  0  0  0
  -30.4956    1.1777   24.7390 C   0  0  0  0  0  0  0  0  0  0  0  0
  -30.0047    2.1146   25.8308 C   0  0  0  0  0  0  0  0  0  0  0  0
  -30.5039    1.6318   27.1301 N   0  0  0  0  0  0  0  0  0  0  0  0
  -31.1685    2.3344   27.4541 H   0  0  0  0  0  0  0  0  0  0  0  0
  -29.5275    1.3192   28.3985 S   0  0  0  0  0  0  0  0  0  0  0  0
  -28.8382    2.5507   28.6407 O   0  0  0  0  0  0  0  0  0  0  0  0
  -30.3542    0.7624   29.4315 O   0  0  0  0  0  0  0  0  0  0  0  0
  -28.3653    0.0905   27.8283 C   0  0  0  0  0  0  0  0  0  0  0  0
  -28.4541   -1.2140   28.5941 C   0  0  0  0  0  0  0  0  0  0  0  0
 27 28  1  0
 24 30  1  0
 24 26  1  0
 41 42  2  0
 41 43  2  0
 41 44  1  0
 24 28  1  0
 28 29  1  0
 10 14  2  0
 16 12  1  0
 11 15  2  0
 30 31  1  0
  1  3  1  0
  1  4  1  0
  2 32  1  0
 25 26  2  0
 26 17  1  0
 41 39  1  0
 17 18  2  0
 17 22  1  0
 18 19  1  0
 19 20  2  0
 19 23  1  0
 20 21  1  0
 21 22  2  0
 16 22  1  0
 12 13  2  0
 12 15  1  0
 10 13  1  0
 11 14  1  0
  1 15  1  0
  3  5  1  0
  4  5  1  0
  5  6  1  0
  5  8  1  0
  6  7  1  0
  2  7  1  0
  8  9  1  0
  2  9  1  0
 32 33  1  0
 33 34  1  0
 33 36  1  0
 34 35  1  0
 35 38  1  0
 36 37  1  0
 37 38  1  0
 39 38  1  0
 44 45  1  0
 39 40  1  0
M  END
> <minimizedAffinity>
-8.18850

> <CNNscore>
0.2685070932

> <CNNaffinity>
7.1435437202

> <CNN_VS>
1.9180921316

> <CNNaffinity_variance>
0.6431059837

$$$$
7uj4


 45 49  0  0  0  0  0  0  0  0999 V2000
  -25.1332    0.9854   20.6518 N   0  0  0  0  0  0  0  0  0  0  0  0
  -28.3234    1.8123   24.2519 N   0  0  0  0  0  0  0  0  0  0  0  0
  -26.1496    0.3790   21.4951 C   0  0  0  0  0  0  0  0  0  0  0  0
  -25.2299    2.3787   21.0712 C   0  0  0  0  0  0  0  0  0  0  0  0
  -26.2912    1.8355   22.1169 C   0  0  0  0  0  0  0  0  0  0  0  0
  -25.9084    1.9235   23.5937 C   0  0  0  0  0  0  0  0  0  0  0  0
  -26.9433    1.2453   24.4619 C   0  0  0  0  0  0  0  0  0  0  0  0
  -27.6782    2.4473   21.9404 C   0  0  0  0  0  0  0  0  0  0  0  0
  -28.7152    1.7767   22.8070 C   0  0  0  0  0  0  0  0  0  0  0  0
  -22.4120   -0.9695   18.3302 N   0  0  0  0  0  0  0  0  0  0  0  0
  -24.6378   -0.2702   18.7744 N   0  0  0  0  0  0  0  0  0  0  0  0
  -22.8737    0.3552   20.1947 C   0  0  0  0  0  0  0  0  0  0  0  0
  -21.9885   -0.3315   19.4026 C   0  0  0  0  0  0  0  0  0  0  0  0
  -23.7103   -0.8726   18.0225 C   0  0  0  0  0  0  0  0  0  0  0  0
  -24.2194    0.3806   19.8512 C   0  0  0  0  0  0  0  0  0  0  0  0
  -22.4031    1.0003   21.2887 O   0  0  0  0  0  0  0  0  0  0  0  0
  -20.7207    2.2489   22.4441 C   0  0  0  0  0  0  0  0  0  0  0  0
  -19.3734    2.5902   22.5742 C   0  0  0  0  0  0  0  0  0  0  0  0
  -18.4608    1.9882   21.7437 C   0  0  0  0  0  0  0  0  0  0  0  0
  -18.7915    1.0720   20.7731 C   0  0  0  0  0  0  0  0  0  0  0  0
  -20.1275    0.7521   20.6264 C   0  0  0  0  0  0  0  0  0  0  0  0
  -21.0723    1.3674   21.4188 C   0  0  0  0  0  0  0  0  0  0  0  0
  -17.1536    2.3049   21.8659 F   0  0  0  0  0  0  0  0  0  0  0  0
  -21.5923    3.0661   24.6635 N   0  0  0  0  0  0  0  0  0  0  0  0
  -22.8906    3.0462   22.8639 O   0  0  0  0  0  0  0  0  0  0  0  0
  -21.7977    2.8088   23.3591 C   0  0  0  0  0  0  0  0  0  0  0  0
  -20.6813    1.3335   26.1281 C   0  0  0  0  0  0  0  0  0  0  0  0
  -20.3988    2.6277   25.3980 C   0  0  0  0  0  0  0  0  0  0  0  0
  -19.8798    3.7244   26.2920 C   0  0  0  0  0  0  0  0  0  0  0  0
  -22.6139    3.7381   25.4801 C   0  0  0  0  0  0  0  0  0  0  0  0
  -23.6649    2.8066   26.0068 C   0  0  0  0  0  0  0  0  0  0  0  0
  -29.3355    1.0300   25.0309 C   0  0  0  0  0  0  0  0  0  0  0  0
  -29.3873    1.3939   26.5152 C   0  0  0  0  0  0  0  0  0  0  0  0
  -29.8660    0.2311   27.3967 C   0  0  0  0  0  0  0  0  0  0  0  0
  -29.8858    0.5850   28.8743 C   0  0  0  0  0  0  0  0  0  0  0  0
  -28.0437    1.9338   27.0001 C   0  0  0  0  0  0  0  0  0  0  0  0
  -28.1132    2.3292   28.4679 C   0  0  0  0  0  0  0  0  0  0  0  0
  -28.5549    1.1507   29.3206 C   0  0  0  0  0  0  0  0  0  0  0  0
  -28.6252    1.5828   30.7273 N   0  0  0  0  0  0  0  0  0  0  0  0
  -28.1282    2.4724   30.7728 H   0  0  0  0  0  0  0  0  0  0  0  0
  -28.0539    0.6859   31.9637 S   0  0  0  0  0  0  0  0  0  0  0  0
  -26.7973    0.1810   31.4984 O   0  0  0  0  0  0  0  0  0  0  0  0
  -28.0864    1.5200   33.1315 O   0  0  0  0  0  0  0  0  0  0  0  0
  -29.2024   -0.6666   32.1567 C   0  0  0  0  0  0  0  0  0  0  0  0
  -30.5194   -0.2458   32.7767 C   0  0  0  0  0  0  0  0  0  0  0  0
 27 28  1  0
 24 30  1  0
 24 26  1  0
 41 42  2  0
 41 43  2  0
 41 44  1  0
 24 28  1  0
 28 29  1  0
 10 14  2  0
 16 12  1  0
 11 15  2  0
 30 31  1  0
  1  3  1  0
  1  4  1  0
  2 32  1  0
 25 26  2  0
 26 17  1  0
 41 39  1  0
 17 18  2  0
 17 22  1  0
 18 19  1  0
 19 20  2  0
 19 23  1  0
 20 21  1  0
 21 22  2  0
 16 22  1  0
 12 13  2  0
 12 15  1  0
 10 13  1  0
 11 14  1  0
  1 15  1  0
  3  5  1  0
  4  5  1  0
  5  6  1  0
  5  8  1  0
  6  7  1  0
  2  7  1  0
  8  9  1  0
  2  9  1  0
 32 33  1  0
 33 34  1  0
 33 36  1  0
 34 35  1  0
 35 38  1  0
 36 37  1  0
 37 38  1  0
 39 38  1  0
 44 45  1  0
 39 40  1  0
M  END
> <minimizedAffinity>
-8.35454

> <CNNscore>
0.2605673075

> <CNNaffinity>
6.7191238403

> <CNN_VS>
1.7507840395

> <CNNaffinity_variance>
0.8860438466

$$$$
7uj4


 45 49  0  0  0  0  0  0  0  0999 V2000
  -24.0295   -1.0636   21.7211 N   0  0  0  0  0  0  0  0  0  0  0  0
  -27.4076    2.4566   21.8583 N   0  0  0  0  0  0  0  0  0  0  0  0
  -24.9078   -0.2992   22.5908 C   0  0  0  0  0  0  0  0  0  0  0  0
  -24.4393   -0.5620   20.4146 C   0  0  0  0  0  0  0  0  0  0  0  0
  -25.3801    0.4064   21.2465 C   0  0  0  0  0  0  0  0  0  0  0  0
  -25.0609    1.8994   21.1799 C   0  0  0  0  0  0  0  0  0  0  0  0
  -25.9421    2.6834   22.1252 C   0  0  0  0  0  0  0  0  0  0  0  0
  -26.8629    0.2156   20.9399 C   0  0  0  0  0  0  0  0  0  0  0  0
  -27.7477    0.9984   21.8781 C   0  0  0  0  0  0  0  0  0  0  0  0
  -20.9679   -3.4966   22.8716 N   0  0  0  0  0  0  0  0  0  0  0  0
  -23.0836   -3.1699   21.8431 N   0  0  0  0  0  0  0  0  0  0  0  0
  -21.8683   -1.3508   22.7000 C   0  0  0  0  0  0  0  0  0  0  0  0
  -20.8665   -2.2017   23.0938 C   0  0  0  0  0  0  0  0  0  0  0  0
  -22.0450   -3.9299   22.2068 C   0  0  0  0  0  0  0  0  0  0  0  0
  -22.9867   -1.8648   22.0560 C   0  0  0  0  0  0  0  0  0  0  0  0
  -21.7301   -0.0258   22.9438 O   0  0  0  0  0  0  0  0  0  0  0  0
  -20.3734    1.9354   23.1389 C   0  0  0  0  0  0  0  0  0  0  0  0
  -19.2250    2.6290   22.7535 C   0  0  0  0  0  0  0  0  0  0  0  0
  -18.3508    2.0208   21.8870 C   0  0  0  0  0  0  0  0  0  0  0  0
  -18.5407    0.7660   21.3576 C   0  0  0  0  0  0  0  0  0  0  0  0
  -19.6895    0.0886   21.7185 C   0  0  0  0  0  0  0  0  0  0  0  0
  -20.6055    0.6869   22.5563 C   0  0  0  0  0  0  0  0  0  0  0  0
  -17.2324    2.6794   21.5135 F   0  0  0  0  0  0  0  0  0  0  0  0
  -21.0052    2.9642   25.3515 N   0  0  0  0  0  0  0  0  0  0  0  0
  -22.5448    2.5266   23.8144 O   0  0  0  0  0  0  0  0  0  0  0  0
  -21.3673    2.4945   24.1440 C   0  0  0  0  0  0  0  0  0  0  0  0
  -19.7318    1.8718   27.1298 C   0  0  0  0  0  0  0  0  0  0  0  0
  -19.6652    2.7819   25.9235 C   0  0  0  0  0  0  0  0  0  0  0  0
  -19.0110    4.1102   26.2047 C   0  0  0  0  0  0  0  0  0  0  0  0
  -21.9753    3.6253   26.2368 C   0  0  0  0  0  0  0  0  0  0  0  0
  -21.3863    4.0683   27.5432 C   0  0  0  0  0  0  0  0  0  0  0  0
  -28.2416    3.1460   22.8939 C   0  0  0  0  0  0  0  0  0  0  0  0
  -28.5558    2.2767   24.1120 C   0  0  0  0  0  0  0  0  0  0  0  0
  -27.6333    2.5678   25.3047 C   0  0  0  0  0  0  0  0  0  0  0  0
  -27.9682    1.7256   26.5243 C   0  0  0  0  0  0  0  0  0  0  0  0
  -30.0248    2.3944   24.5122 C   0  0  0  0  0  0  0  0  0  0  0  0
  -30.3389    1.4981   25.7012 C   0  0  0  0  0  0  0  0  0  0  0  0
  -29.4360    1.8317   26.8777 C   0  0  0  0  0  0  0  0  0  0  0  0
  -29.7622    0.9304   27.9966 N   0  0  0  0  0  0  0  0  0  0  0  0
  -30.7624    0.7440   27.9243 H   0  0  0  0  0  0  0  0  0  0  0  0
  -29.4890    1.3145   29.5579 S   0  0  0  0  0  0  0  0  0  0  0  0
  -29.3901    2.7430   29.5705 O   0  0  0  0  0  0  0  0  0  0  0  0
  -30.5174    0.6752   30.3288 O   0  0  0  0  0  0  0  0  0  0  0  0
  -27.9022    0.6058   29.9641 C   0  0  0  0  0  0  0  0  0  0  0  0
  -27.4241    0.9733   31.3543 C   0  0  0  0  0  0  0  0  0  0  0  0
 27 28  1  0
 24 30  1  0
 24 26  1  0
 41 42  2  0
 41 43  2  0
 41 44  1  0
 24 28  1  0
 28 29  1  0
 10 14  2  0
 16 12  1  0
 11 15  2  0
 30 31  1  0
  1  3  1  0
  1  4  1  0
  2 32  1  0
 25 26  2  0
 26 17  1  0
 41 39  1  0
 17 18  2  0
 17 22  1  0
 18 19  1  0
 19 20  2  0
 19 23  1  0
 20 21  1  0
 21 22  2  0
 16 22  1  0
 12 13  2  0
 12 15  1  0
 10 13  1  0
 11 14  1  0
  1 15  1  0
  3  5  1  0
  4  5  1  0
  5  6  1  0
  5  8  1  0
  6  7  1  0
  2  7  1  0
  8  9  1  0
  2  9  1  0
 32 33  1  0
 33 34  1  0
 33 36  1  0
 34 35  1  0
 35 38  1  0
 36 37  1  0
 37 38  1  0
 39 38  1  0
 44 45  1  0
 39 40  1  0
M  END
> <minimizedAffinity>
-8.07873

> <CNNscore>
0.2416085303

> <CNNaffinity>
6.6480140686

> <CNN_VS>
1.6062169075

> <CNNaffinity_variance>
0.9149861336

$$$$
7uj4


 45 49  0  0  0  0  0  0  0  0999 V2000
  -23.7818    2.5735   24.4496 N   0  0  0  0  0  0  0  0  0  0  0  0
  -28.0935    1.9599   22.2463 N   0  0  0  0  0  0  0  0  0  0  0  0
  -25.1081    1.9947   24.5842 C   0  0  0  0  0  0  0  0  0  0  0  0
  -23.8428    3.0741   23.0813 C   0  0  0  0  0  0  0  0  0  0  0  0
  -25.3479    2.5762   23.1239 C   0  0  0  0  0  0  0  0  0  0  0  0
  -26.4304    3.6524   23.0507 C   0  0  0  0  0  0  0  0  0  0  0  0
  -27.8040    3.0517   23.2435 C   0  0  0  0  0  0  0  0  0  0  0  0
  -25.6584    1.5074   22.0797 C   0  0  0  0  0  0  0  0  0  0  0  0
  -27.0297    0.9062   22.2648 C   0  0  0  0  0  0  0  0  0  0  0  0
  -20.8666    3.2571   27.2156 N   0  0  0  0  0  0  0  0  0  0  0  0
  -22.9729    3.7782   26.2497 N   0  0  0  0  0  0  0  0  0  0  0  0
  -21.6909    1.9815   25.4442 C   0  0  0  0  0  0  0  0  0  0  0  0
  -20.7193    2.2539   26.3739 C   0  0  0  0  0  0  0  0  0  0  0  0
  -22.0097    3.9500   27.1615 C   0  0  0  0  0  0  0  0  0  0  0  0
  -22.8363    2.7664   25.4038 C   0  0  0  0  0  0  0  0  0  0  0  0
  -21.5065    0.9422   24.5955 O   0  0  0  0  0  0  0  0  0  0  0  0
  -20.8161    0.1264   22.4549 C   0  0  0  0  0  0  0  0  0  0  0  0
  -19.9359    0.2188   21.3754 C   0  0  0  0  0  0  0  0  0  0  0  0
  -18.9865    1.2104   21.3858 C   0  0  0  0  0  0  0  0  0  0  0  0
  -18.8350    2.1194   22.4064 C   0  0  0  0  0  0  0  0  0  0  0  0
  -19.6892    2.0133   23.4872 C   0  0  0  0  0  0  0  0  0  0  0  0
  -20.6280    1.0053   23.5245 C   0  0  0  0  0  0  0  0  0  0  0  0
  -18.1347    1.3143   20.3428 F   0  0  0  0  0  0  0  0  0  0  0  0
  -21.8855   -2.0143   23.2465 N   0  0  0  0  0  0  0  0  0  0  0  0
  -22.9474   -0.6558   21.8497 O   0  0  0  0  0  0  0  0  0  0  0  0
  -21.9428   -0.8928   22.5059 C   0  0  0  0  0  0  0  0  0  0  0  0
  -20.1058   -3.6879   23.1521 C   0  0  0  0  0  0  0  0  0  0  0  0
  -20.6599   -2.4941   23.8975 C   0  0  0  0  0  0  0  0  0  0  0  0
  -20.8913   -2.7523   25.3643 C   0  0  0  0  0  0  0  0  0  0  0  0
  -23.0497   -2.9025   23.3798 C   0  0  0  0  0  0  0  0  0  0  0  0
  -23.2998   -3.7457   22.1647 C   0  0  0  0  0  0  0  0  0  0  0  0
  -29.4058    1.3057   22.5518 C   0  0  0  0  0  0  0  0  0  0  0  0
  -29.6529    1.0858   24.0447 C   0  0  0  0  0  0  0  0  0  0  0  0
  -28.4003    0.6028   24.7904 C   0  0  0  0  0  0  0  0  0  0  0  0
  -28.6398    0.4160   26.2792 C   0  0  0  0  0  0  0  0  0  0  0  0
  -30.2341    2.3367   24.6999 C   0  0  0  0  0  0  0  0  0  0  0  0
  -30.5126    2.0987   26.1769 C   0  0  0  0  0  0  0  0  0  0  0  0
  -29.2489    1.6563   26.8966 C   0  0  0  0  0  0  0  0  0  0  0  0
  -29.5686    1.4208   28.3154 N   0  0  0  0  0  0  0  0  0  0  0  0
  -30.5759    1.5558   28.4022 H   0  0  0  0  0  0  0  0  0  0  0  0
  -28.8953    2.2720   29.5328 S   0  0  0  0  0  0  0  0  0  0  0  0
  -27.9551    3.1423   28.8934 O   0  0  0  0  0  0  0  0  0  0  0  0
  -29.9752    2.8393   30.2895 O   0  0  0  0  0  0  0  0  0  0  0  0
  -28.0180    1.0822   30.5329 C   0  0  0  0  0  0  0  0  0  0  0  0
  -28.8784   -0.0920   30.9537 C   0  0  0  0  0  0  0  0  0  0  0  0
 27 28  1  0
 24 30  1  0
 24 26  1  0
 41 42  2  0
 41 43  2  0
 41 44  1  0
 24 28  1  0
 28 29  1  0
 10 14  2  0
 16 12  1  0
 11 15  2  0
 30 31  1  0
  1  3  1  0
  1  4  1  0
  2 32  1  0
 25 26  2  0
 26 17  1  0
 41 39  1  0
 17 18  2  0
 17 22  1  0
 18 19  1  0
 19 20  2  0
 19 23  1  0
 20 21  1  0
 21 22  2  0
 16 22  1  0
 12 13  2  0
 12 15  1  0
 10 13  1  0
 11 14  1  0
  1 15  1  0
  3  5  1  0
  4  5  1  0
  5  6  1  0
  5  8  1  0
  6  7  1  0
  2  7  1  0
  8  9  1  0
  2  9  1  0
 32 33  1  0
 33 34  1  0
 33 36  1  0
 34 35  1  0
 35 38  1  0
 36 37  1  0
 37 38  1  0
 39 38  1  0
 44 45  1  0
 39 40  1  0
M  END
> <minimizedAffinity>
-7.79720

> <CNNscore>
0.2085777670

> <CNNaffinity>
6.7958025932

> <CNN_VS>
1.4174532890

> <CNNaffinity_variance>
0.5275623798

$$$$
7uj4


 45 49  0  0  0  0  0  0  0  0999 V2000
  -21.4866    2.7255   23.4019 N   0  0  0  0  0  0  0  0  0  0  0  0
  -25.8667    3.1267   25.5174 N   0  0  0  0  0  0  0  0  0  0  0  0
  -22.8347    2.1843   23.4441 C   0  0  0  0  0  0  0  0  0  0  0  0
  -21.6170    3.8483   24.3231 C   0  0  0  0  0  0  0  0  0  0  0  0
  -23.0910    3.3057   24.5417 C   0  0  0  0  0  0  0  0  0  0  0  0
  -23.4230    2.7571   25.9288 C   0  0  0  0  0  0  0  0  0  0  0  0
  -24.8064    2.1486   25.9528 C   0  0  0  0  0  0  0  0  0  0  0  0
  -24.1681    4.3139   24.1509 C   0  0  0  0  0  0  0  0  0  0  0  0
  -25.5518    3.7134   24.1762 C   0  0  0  0  0  0  0  0  0  0  0  0
  -18.1803    1.2485   21.5301 N   0  0  0  0  0  0  0  0  0  0  0  0
  -19.2186    2.8312   22.9647 N   0  0  0  0  0  0  0  0  0  0  0  0
  -20.4574    1.0780   22.0097 C   0  0  0  0  0  0  0  0  0  0  0  0
  -19.3290    0.6213   21.3768 C   0  0  0  0  0  0  0  0  0  0  0  0
  -18.1518    2.2975   22.3599 C   0  0  0  0  0  0  0  0  0  0  0  0
  -20.3770    2.2021   22.8219 C   0  0  0  0  0  0  0  0  0  0  0  0
  -21.6207    0.4080   21.8301 O   0  0  0  0  0  0  0  0  0  0  0  0
  -22.1411   -1.8844   21.3843 C   0  0  0  0  0  0  0  0  0  0  0  0
  -22.2850   -2.9099   20.4484 C   0  0  0  0  0  0  0  0  0  0  0  0
  -22.1080   -2.6150   19.1192 C   0  0  0  0  0  0  0  0  0  0  0  0
  -21.7816   -1.3661   18.6455 C   0  0  0  0  0  0  0  0  0  0  0  0
  -21.6141   -0.3557   19.5728 C   0  0  0  0  0  0  0  0  0  0  0  0
  -21.7473   -0.6280   20.9171 C   0  0  0  0  0  0  0  0  0  0  0  0
  -22.2526   -3.5978   18.2041 F   0  0  0  0  0  0  0  0  0  0  0  0
  -21.6726   -2.9626   23.6139 N   0  0  0  0  0  0  0  0  0  0  0  0
  -23.2541   -1.4206   23.4009 O   0  0  0  0  0  0  0  0  0  0  0  0
  -22.3820   -2.0944   22.8705 C   0  0  0  0  0  0  0  0  0  0  0  0
  -21.2742   -5.3557   23.3112 C   0  0  0  0  0  0  0  0  0  0  0  0
  -20.7577   -3.9594   23.0435 C   0  0  0  0  0  0  0  0  0  0  0  0
  -19.3463   -3.7357   23.5222 C   0  0  0  0  0  0  0  0  0  0  0  0
  -21.8399   -3.0341   25.0730 C   0  0  0  0  0  0  0  0  0  0  0  0
  -21.1048   -1.9556   25.8119 C   0  0  0  0  0  0  0  0  0  0  0  0
  -27.2002    2.4501   25.4311 C   0  0  0  0  0  0  0  0  0  0  0  0
  -27.9427    2.3774   26.7658 C   0  0  0  0  0  0  0  0  0  0  0  0
  -28.5250    0.9847   27.0479 C   0  0  0  0  0  0  0  0  0  0  0  0
  -29.2345    0.9064   28.3893 C   0  0  0  0  0  0  0  0  0  0  0  0
  -27.0572    2.8462   27.9183 C   0  0  0  0  0  0  0  0  0  0  0  0
  -27.8143    2.8071   29.2377 C   0  0  0  0  0  0  0  0  0  0  0  0
  -28.3487    1.4100   29.5084 C   0  0  0  0  0  0  0  0  0  0  0  0
  -29.0875    1.4233   30.7830 N   0  0  0  0  0  0  0  0  0  0  0  0
  -29.0772    2.3916   31.1032 H   0  0  0  0  0  0  0  0  0  0  0  0
  -28.6569    0.5201   32.0709 S   0  0  0  0  0  0  0  0  0  0  0  0
  -27.7277   -0.4374   31.5512 O   0  0  0  0  0  0  0  0  0  0  0  0
  -28.2273    1.4323   33.0926 O   0  0  0  0  0  0  0  0  0  0  0  0
  -30.1419   -0.3186   32.5970 C   0  0  0  0  0  0  0  0  0  0  0  0
  -29.9612   -1.8163   32.7398 C   0  0  0  0  0  0  0  0  0  0  0  0
 27 28  1  0
 24 30  1  0
 24 26  1  0
 41 42  2  0
 41 43  2  0
 41 44  1  0
 24 28  1  0
 28 29  1  0
 10 14  2  0
 16 12  1  0
 11 15  2  0
 30 31  1  0
  1  3  1  0
  1  4  1  0
  2 32  1  0
 25 26  2  0
 26 17  1  0
 41 39  1  0
 17 18  2  0
 17 22  1  0
 18 19  1  0
 19 20  2  0
 19 23  1  0
 20 21  1  0
 21 22  2  0
 16 22  1  0
 12 13  2  0
 12 15  1  0
 10 13  1  0
 11 14  1  0
  1 15  1  0
  3  5  1  0
  4  5  1  0
  5  6  1  0
  5  8  1  0
  6  7  1  0
  2  7  1  0
  8  9  1  0
  2  9  1  0
 32 33  1  0
 33 34  1  0
 33 36  1  0
 34 35  1  0
 35 38  1  0
 36 37  1  0
 37 38  1  0
 39 38  1  0
 44 45  1  0
 39 40  1  0
M  END
> <minimizedAffinity>
-7.72168

> <CNNscore>
0.2011528015

> <CNNaffinity>
6.2847952843

> <CNN_VS>
1.2642041445

> <CNNaffinity_variance>
1.4098106623

$$$$
7uj4


 45 49  0  0  0  0  0  0  0  0999 V2000
  -22.1113   -2.4737   22.2312 N   0  0  0  0  0  0  0  0  0  0  0  0
  -23.9527   -1.6194   17.7926 N   0  0  0  0  0  0  0  0  0  0  0  0
  -23.2328   -1.9021   21.5050 C   0  0  0  0  0  0  0  0  0  0  0  0
  -21.3366   -3.0377   21.1320 C   0  0  0  0  0  0  0  0  0  0  0  0
  -22.4438   -2.3768   20.2088 C   0  0  0  0  0  0  0  0  0  0  0  0
  -21.9897   -1.2342   19.3012 C   0  0  0  0  0  0  0  0  0  0  0  0
  -23.1670   -0.6095   18.5882 C   0  0  0  0  0  0  0  0  0  0  0  0
  -23.2063   -3.3920   19.3620 C   0  0  0  0  0  0  0  0  0  0  0  0
  -24.3809   -2.7737   18.6450 C   0  0  0  0  0  0  0  0  0  0  0  0
  -21.2964   -2.0586   26.2037 N   0  0  0  0  0  0  0  0  0  0  0  0
  -21.7062   -3.4205   24.3014 N   0  0  0  0  0  0  0  0  0  0  0  0
  -21.6336   -1.0796   24.1127 C   0  0  0  0  0  0  0  0  0  0  0  0
  -21.3824   -0.9759   25.4575 C   0  0  0  0  0  0  0  0  0  0  0  0
  -21.4067   -3.2437   25.5928 C   0  0  0  0  0  0  0  0  0  0  0  0
  -21.7870   -2.3367   23.5418 C   0  0  0  0  0  0  0  0  0  0  0  0
  -21.7145    0.0543   23.3763 O   0  0  0  0  0  0  0  0  0  0  0  0
  -20.0995    1.8034   23.6142 C   0  0  0  0  0  0  0  0  0  0  0  0
  -18.9543    2.4374   23.1293 C   0  0  0  0  0  0  0  0  0  0  0  0
  -18.3308    1.9114   22.0250 C   0  0  0  0  0  0  0  0  0  0  0  0
  -18.7723    0.7977   21.3501 C   0  0  0  0  0  0  0  0  0  0  0  0
  -19.9199    0.1840   21.8139 C   0  0  0  0  0  0  0  0  0  0  0  0
  -20.5905    0.7097   22.8969 C   0  0  0  0  0  0  0  0  0  0  0  0
  -17.2174    2.5120   21.5518 F   0  0  0  0  0  0  0  0  0  0  0  0
  -21.9849    2.9443   24.8375 N   0  0  0  0  0  0  0  0  0  0  0  0
  -20.3162    1.9902   25.9463 O   0  0  0  0  0  0  0  0  0  0  0  0
  -20.8222    2.2684   24.8681 C   0  0  0  0  0  0  0  0  0  0  0  0
  -21.7321    4.6731   23.1274 C   0  0  0  0  0  0  0  0  0  0  0  0
  -22.5640    3.5059   23.6106 C   0  0  0  0  0  0  0  0  0  0  0  0
  -24.0206    3.8415   23.8035 C   0  0  0  0  0  0  0  0  0  0  0  0
  -22.7227    3.2521   26.0716 C   0  0  0  0  0  0  0  0  0  0  0  0
  -21.9228    4.0424   27.0642 C   0  0  0  0  0  0  0  0  0  0  0  0
  -25.1792   -0.9876   17.2094 C   0  0  0  0  0  0  0  0  0  0  0  0
  -26.1650   -0.4708   18.2579 C   0  0  0  0  0  0  0  0  0  0  0  0
  -26.6750   -1.5778   19.1921 C   0  0  0  0  0  0  0  0  0  0  0  0
  -27.6294   -1.0561   20.2531 C   0  0  0  0  0  0  0  0  0  0  0  0
  -25.5695    0.6885   19.0538 C   0  0  0  0  0  0  0  0  0  0  0  0
  -26.5693    1.2224   20.0692 C   0  0  0  0  0  0  0  0  0  0  0  0
  -27.0299    0.1142   21.0023 C   0  0  0  0  0  0  0  0  0  0  0  0
  -28.0071    0.6709   21.9540 N   0  0  0  0  0  0  0  0  0  0  0  0
  -28.5713    1.3333   21.4217 H   0  0  0  0  0  0  0  0  0  0  0  0
  -27.5750    1.4471   23.3217 S   0  0  0  0  0  0  0  0  0  0  0  0
  -28.6639    1.2280   24.2254 O   0  0  0  0  0  0  0  0  0  0  0  0
  -26.2659    0.9736   23.6718 O   0  0  0  0  0  0  0  0  0  0  0  0
  -27.4961    3.1785   22.8959 C   0  0  0  0  0  0  0  0  0  0  0  0
  -28.6541    3.6324   22.0304 C   0  0  0  0  0  0  0  0  0  0  0  0
 27 28  1  0
 24 30  1  0
 24 26  1  0
 41 42  2  0
 41 43  2  0
 41 44  1  0
 24 28  1  0
 28 29  1  0
 10 14  2  0
 16 12  1  0
 11 15  2  0
 30 31  1  0
  1  3  1  0
  1  4  1  0
  2 32  1  0
 25 26  2  0
 26 17  1  0
 41 39  1  0
 17 18  2  0
 17 22  1  0
 18 19  1  0
 19 20  2  0
 19 23  1  0
 20 21  1  0
 21 22  2  0
 16 22  1  0
 12 13  2  0
 12 15  1  0
 10 13  1  0
 11 14  1  0
  1 15  1  0
  3  5  1  0
  4  5  1  0
  5  6  1  0
  5  8  1  0
  6  7  1  0
  2  7  1  0
  8  9  1  0
  2  9  1  0
 32 33  1  0
 33 34  1  0
 33 36  1  0
 34 35  1  0
 35 38  1  0
 36 37  1  0
 37 38  1  0
 39 38  1  0
 44 45  1  0
 39 40  1  0
M  END
> <minimizedAffinity>
-7.55902

> <CNNscore>
0.2003460377

> <CNNaffinity>
6.6531796455

> <CNN_VS>
1.3329381943

> <CNNaffinity_variance>
0.8312945962

$$$$
7uj4


 45 49  0  0  0  0  0  0  0  0999 V2000
  -23.1328   -1.4098   20.9311 N   0  0  0  0  0  0  0  0  0  0  0  0
  -24.4692   -0.9248   16.2620 N   0  0  0  0  0  0  0  0  0  0  0  0
  -22.7670   -1.7130   19.5576 C   0  0  0  0  0  0  0  0  0  0  0  0
  -24.3224   -0.5933   20.7202 C   0  0  0  0  0  0  0  0  0  0  0  0
  -24.0989   -0.9279   19.1863 C   0  0  0  0  0  0  0  0  0  0  0  0
  -25.1632   -1.7901   18.5086 C   0  0  0  0  0  0  0  0  0  0  0  0
  -24.7532   -2.1458   17.0979 C   0  0  0  0  0  0  0  0  0  0  0  0
  -23.8631    0.3115   18.3276 C   0  0  0  0  0  0  0  0  0  0  0  0
  -23.4567   -0.0370   16.9171 C   0  0  0  0  0  0  0  0  0  0  0  0
  -21.7420   -2.9239   24.4511 N   0  0  0  0  0  0  0  0  0  0  0  0
  -22.7030   -3.2232   22.2998 N   0  0  0  0  0  0  0  0  0  0  0  0
  -22.1014   -1.0837   23.0622 C   0  0  0  0  0  0  0  0  0  0  0  0
  -21.6630   -1.6249   24.2444 C   0  0  0  0  0  0  0  0  0  0  0  0
  -22.2076   -3.6840   23.4535 C   0  0  0  0  0  0  0  0  0  0  0  0
  -22.6206   -1.9181   22.0804 C   0  0  0  0  0  0  0  0  0  0  0  0
  -22.0042    0.2554   22.8837 O   0  0  0  0  0  0  0  0  0  0  0  0
  -20.5447    2.1417   23.0745 C   0  0  0  0  0  0  0  0  0  0  0  0
  -19.3278    2.7407   22.7447 C   0  0  0  0  0  0  0  0  0  0  0  0
  -18.4291    2.0285   21.9897 C   0  0  0  0  0  0  0  0  0  0  0  0
  -18.6567    0.7562   21.5205 C   0  0  0  0  0  0  0  0  0  0  0  0
  -19.8710    0.1717   21.8250 C   0  0  0  0  0  0  0  0  0  0  0  0
  -20.8096    0.8747   22.5487 C   0  0  0  0  0  0  0  0  0  0  0  0
  -17.2452    2.5953   21.6712 F   0  0  0  0  0  0  0  0  0  0  0  0
  -21.4110    2.9877   25.2852 N   0  0  0  0  0  0  0  0  0  0  0  0
  -22.5902    3.2440   23.4229 O   0  0  0  0  0  0  0  0  0  0  0  0
  -21.5764    2.8207   23.9606 C   0  0  0  0  0  0  0  0  0  0  0  0
  -20.7963    0.9801   26.5378 C   0  0  0  0  0  0  0  0  0  0  0  0
  -20.3423    2.3403   26.0564 C   0  0  0  0  0  0  0  0  0  0  0  0
  -19.8517    3.2392   27.1622 C   0  0  0  0  0  0  0  0  0  0  0  0
  -22.3653    3.7730   26.0816 C   0  0  0  0  0  0  0  0  0  0  0  0
  -23.5663    2.9881   26.5190 C   0  0  0  0  0  0  0  0  0  0  0  0
  -23.9436   -1.3212   14.9167 C   0  0  0  0  0  0  0  0  0  0  0  0
  -23.0320   -2.5486   14.9477 C   0  0  0  0  0  0  0  0  0  0  0  0
  -22.1443   -2.5992   16.1997 C   0  0  0  0  0  0  0  0  0  0  0  0
  -21.2628   -3.8361   16.2439 C   0  0  0  0  0  0  0  0  0  0  0  0
  -23.8344   -3.8383   14.7907 C   0  0  0  0  0  0  0  0  0  0  0  0
  -22.9177   -5.0529   14.7844 C   0  0  0  0  0  0  0  0  0  0  0  0
  -22.0771   -5.0970   16.0502 C   0  0  0  0  0  0  0  0  0  0  0  0
  -21.1947   -6.2755   15.9929 N   0  0  0  0  0  0  0  0  0  0  0  0
  -21.3404   -6.6906   15.0726 H   0  0  0  0  0  0  0  0  0  0  0  0
  -21.2830   -7.5062   17.0593 S   0  0  0  0  0  0  0  0  0  0  0  0
  -22.5348   -8.1426   16.7797 O   0  0  0  0  0  0  0  0  0  0  0  0
  -20.0677   -8.2586   16.9264 O   0  0  0  0  0  0  0  0  0  0  0  0
  -21.3496   -6.7487   18.6740 C   0  0  0  0  0  0  0  0  0  0  0  0
  -20.0353   -6.8285   19.4240 C   0  0  0  0  0  0  0  0  0  0  0  0
 27 28  1  0
 24 30  1  0
 24 26  1  0
 41 42  2  0
 41 43  2  0
 41 44  1  0
 24 28  1  0
 28 29  1  0
 10 14  2  0
 16 12  1  0
 11 15  2  0
 30 31  1  0
  1  3  1  0
  1  4  1  0
  2 32  1  0
 25 26  2  0
 26 17  1  0
 41 39  1  0
 17 18  2  0
 17 22  1  0
 18 19  1  0
 19 20  2  0
 19 23  1  0
 20 21  1  0
 21 22  2  0
 16 22  1  0
 12 13  2  0
 12 15  1  0
 10 13  1  0
 11 14  1  0
  1 15  1  0
  3  5  1  0
  4  5  1  0
  5  6  1  0
  5  8  1  0
  6  7  1  0
  2  7  1  0
  8  9  1  0
  2  9  1  0
 32 33  1  0
 33 34  1  0
 33 36  1  0
 34 35  1  0
 35 38  1  0
 36 37  1  0
 37 38  1  0
 39 38  1  0
 44 45  1  0
 39 40  1  0
M  END
> <minimizedAffinity>
-7.27526

> <CNNscore>
0.1864339262

> <CNNaffinity>
6.3290786743

> <CNN_VS>
1.1799550056

> <CNNaffinity_variance>
1.5232306719

$$$$
