7uj4
     RDKit          3D

 45 49  0  0  0  0  0  0  0  0999 V2000
  -21.0501    0.0318   23.3511 N   0  0  0  0  0  0  0  0  0  0  0  0
  -21.0971   -4.6859   22.1008 N   0  0  0  0  0  0  0  0  0  0  0  0
  -20.5342   -0.9486   22.4105 C   0  0  0  0  0  0  0  0  0  0  0  0
  -21.9696   -0.7938   24.1252 C   0  0  0  0  0  0  0  0  0  0  0  0
  -21.4195   -1.9830   23.2318 C   0  0  0  0  0  0  0  0  0  0  0  0
  -20.6119   -3.0645   23.9483 C   0  0  0  0  0  0  0  0  0  0  0  0
  -20.0343   -4.0519   22.9603 C   0  0  0  0  0  0  0  0  0  0  0  0
  -22.5033   -2.6620   22.3990 C   0  0  0  0  0  0  0  0  0  0  0  0
  -21.9332   -3.6514   21.4130 C   0  0  0  0  0  0  0  0  0  0  0  0
  -19.6675    3.7973   24.0768 N   0  0  0  0  0  0  0  0  0  0  0  0
  -19.8025    1.8665   22.7002 N   0  0  0  0  0  0  0  0  0  0  0  0
  -20.9892    1.9867   24.7245 C   0  0  0  0  0  0  0  0  0  0  0  0
  -20.4873    3.2440   24.9476 C   0  0  0  0  0  0  0  0  0  0  0  0
  -19.3963    3.1142   22.9589 C   0  0  0  0  0  0  0  0  0  0  0  0
  -20.6337    1.3051   23.5674 C   0  0  0  0  0  0  0  0  0  0  0  0
  -21.8299    1.4494   25.6405 O   0  0  0  0  0  0  0  0  0  0  0  0
  -23.2927    1.7517   27.5096 C   0  0  0  0  0  0  0  0  0  0  0  0
  -23.5396    2.3669   28.7380 C   0  0  0  0  0  0  0  0  0  0  0  0
  -22.5730    3.1852   29.2681 C   0  0  0  0  0  0  0  0  0  0  0  0
  -21.3711    3.4524   28.6559 C   0  0  0  0  0  0  0  0  0  0  0  0
  -21.1359    2.8641   27.4281 C   0  0  0  0  0  0  0  0  0  0  0  0
  -22.1016    2.0680   26.8514 C   0  0  0  0  0  0  0  0  0  0  0  0
  -22.7978    3.7795   30.4600 F   0  0  0  0  0  0  0  0  0  0  0  0
  -25.3077    1.1698   26.1116 N   0  0  0  0  0  0  0  0  0  0  0  0
  -24.0772   -0.4163   27.0572 O   0  0  0  0  0  0  0  0  0  0  0  0
  -24.2700    0.7772   26.8724 C   0  0  0  0  0  0  0  0  0  0  0  0
  -26.8214    2.8586   27.0248 C   0  0  0  0  0  0  0  0  0  0  0  0
  -25.7482    2.5661   25.9998 C   0  0  0  0  0  0  0  0  0  0  0  0
  -26.1578    2.8933   24.5867 C   0  0  0  0  0  0  0  0  0  0  0  0
  -26.1451    0.1939   25.3987 C   0  0  0  0  0  0  0  0  0  0  0  0
  -27.2398   -0.3848   26.2451 C   0  0  0  0  0  0  0  0  0  0  0  0
  -20.4738   -5.5563   21.0534 C   0  0  0  0  0  0  0  0  0  0  0  0
  -19.6670   -6.7243   21.6218 C   0  0  1  0  0  0  0  0  0  0  0  0
  -20.5429   -7.9328   21.9830 C   0  0  0  0  0  0  0  0  0  0  0  0
  -19.7352   -9.1036   22.5174 C   0  0  0  0  0  0  0  0  0  0  0  0
  -18.5365   -7.1278   20.6778 C   0  0  0  0  0  0  0  0  0  0  0  0
  -17.7148   -8.2651   21.2668 C   0  0  0  0  0  0  0  0  0  0  0  0
  -18.6005   -9.4598   21.5814 C   0  0  1  0  0  0  0  0  0  0  0  0
  -17.7685  -10.5268   22.1642 N   0  0  0  0  0  0  0  0  0  0  0  0
  -16.8628  -10.4619   21.6996 H   0  0  0  0  0  0  0  0  0  0  0  0
  -18.1833  -12.1035   22.1202 S   0  0  0  0  0  0  0  0  0  0  0  0
  -16.9681  -12.7921   21.8052 O   0  0  0  0  0  0  0  0  0  0  0  0
  -18.8531  -12.3912   23.3568 O   0  0  0  0  0  0  0  0  0  0  0  0
  -19.3287  -12.2687   20.7614 C   0  0  0  0  0  0  0  0  0  0  0  0
  -19.4199  -13.6842   20.2281 C   0  0  0  0  0  0  0  0  0  0  0  0
 27 28  1  0
 24 30  1  0
 24 26  1  0
 41 42  2  0
 41 43  2  0
 41 44  1  0
 24 28  1  0
 28 29  1  0
 10 14  2  0
 16 12  1  0
 11 15  2  0
 30 31  1  0
  1  3  1  0
  1  4  1  0
  2 32  1  0
 25 26  2  0
 26 17  1  0
 41 39  1  0
 17 18  2  0
 17 22  1  0
 18 19  1  0
 19 20  2  0
 19 23  1  0
 20 21  1  0
 21 22  2  0
 16 22  1  0
 12 13  2  0
 12 15  1  0
 10 13  1  0
 11 14  1  0
  1 15  1  0
  3  5  1  0
  4  5  1  0
  5  6  1  0
  5  8  1  0
  6  7  1  0
  2  7  1  0
  8  9  1  0
  2  9  1  0
 33 32  1  6
 33 34  1  0
 33 36  1  0
 34 35  1  0
 35 38  1  0
 36 37  1  0
 37 38  1  0
 38 39  1  1
 44 45  1  0
 39 40  1  0
M  END
>  <minimizedAffinity>  (1) 
-7.84318

>  <CNNscore>  (1) 
0.3310884237

>  <CNNaffinity>  (1) 
6.9927463531

>  <CNN_VS>  (1) 
2.3152172565

>  <CNNaffinity_variance>  (1) 
0.2146117687

$$$$
