NS-C-142.sdf
     RDKit          3D

 26 29  0  0  0  0  0  0  0  0999 V2000
  -21.2198   -4.4337   21.4339 N   0  0  0  0  0  0  0  0  0  0  0  0
  -22.5665   -4.5923   20.8939 C   0  0  0  0  0  0  0  0  0  0  0  0
  -23.2760   -3.3096   21.3123 C   0  0  0  0  0  0  0  0  0  0  0  0
  -22.1764   -2.2582   21.2165 C   0  0  2  0  0  0  0  0  0  0  0  0
  -20.9282   -3.0222   21.7163 C   0  0  0  0  0  0  0  0  0  0  0  0
  -20.1463   -6.2424   20.2258 C   0  0  0  0  0  0  0  0  0  0  0  0
  -19.1605   -7.2310   20.1156 C   0  0  0  0  0  0  0  0  0  0  0  0
  -18.2446   -7.4033   21.1411 C   0  0  0  0  0  0  0  0  0  0  0  0
  -18.2937   -6.6072   22.2700 C   0  0  0  0  0  0  0  0  0  0  0  0
  -19.2804   -5.6265   22.3672 C   0  0  0  0  0  0  0  0  0  0  0  0
  -20.2458   -5.4102   21.3575 C   0  0  0  0  0  0  0  0  0  0  0  0
  -17.3015   -8.3479   21.0353 F   0  0  0  0  0  0  0  0  0  0  0  0
  -19.2861   -4.8866   23.4886 F   0  0  0  0  0  0  0  0  0  0  0  0
  -22.6234    0.1562   21.3287 C   0  0  0  0  0  0  0  0  0  0  0  0
  -22.3578    0.3315   20.1460 O   0  0  0  0  0  0  0  0  0  0  0  0
  -22.5073   -1.0567   21.9679 N   0  0  0  0  0  0  0  0  0  0  0  0
  -22.6491   -1.1121   22.9405 H   0  0  0  0  0  0  0  0  0  0  0  0
  -23.1613    1.2637   22.1748 C   0  0  0  0  0  0  0  0  0  0  0  0
  -22.5000    1.7027   23.2653 C   0  0  0  0  0  0  0  0  0  0  0  0
  -23.0388    2.7577   23.9952 N   0  0  0  0  0  0  0  0  0  0  0  0
  -24.2223    3.4012   23.6709 C   0  0  0  0  0  0  0  0  0  0  0  0
  -24.9076    2.9627   22.5067 C   0  0  0  0  0  0  0  0  0  0  0  0
  -24.3986    1.9442   21.7849 C   0  0  0  0  0  0  0  0  0  0  0  0
  -22.5931    3.3855   25.1238 C   0  0  0  0  0  0  0  0  0  0  0  0
  -23.4376    4.3281   25.4780 N   0  0  0  0  0  0  0  0  0  0  0  0
  -24.4669    4.3389   24.5599 N   0  0  0  0  0  0  0  0  0  0  0  0
 14 18  1  0
 14 15  2  0
 18 19  2  0
 19 20  1  0
 20 21  1  0
 21 22  1  0
 22 23  2  0
 23 18  1  0
 20 24  1  0
 24 25  2  0
 25 26  1  0
 26 21  2  0
  6  7  2  0
  7  8  1  0
  8  9  2  0
  9 10  1  0
 10 11  2  0
 11  6  1  0
  8 12  1  0
 11  1  1  0
  1  2  1  0
  2  3  1  0
  3  4  1  0
  4  5  1  0
  5  1  1  0
  4 16  1  1
 14 16  1  0
 10 13  1  0
 16 17  1  0
M  END
>  <minimizedAffinity>  (1) 
-6.64189

>  <CNNscore>  (1) 
0.5903551579

>  <CNNaffinity>  (1) 
5.3445816040

>  <CNN_VS>  (1) 
3.1552014351

>  <CNNaffinity_variance>  (1) 
0.0289123785

$$$$
