7uj4
     RDKit          3D

 45 49  0  0  0  0  0  0  0  0999 V2000
  -24.0295   -1.0636   21.7211 N   0  0  0  0  0  0  0  0  0  0  0  0
  -27.4076    2.4566   21.8583 N   0  0  0  0  0  0  0  0  0  0  0  0
  -24.9078   -0.2992   22.5908 C   0  0  0  0  0  0  0  0  0  0  0  0
  -24.4393   -0.5620   20.4146 C   0  0  0  0  0  0  0  0  0  0  0  0
  -25.3801    0.4064   21.2465 C   0  0  0  0  0  0  0  0  0  0  0  0
  -25.0609    1.8994   21.1799 C   0  0  0  0  0  0  0  0  0  0  0  0
  -25.9421    2.6834   22.1252 C   0  0  0  0  0  0  0  0  0  0  0  0
  -26.8629    0.2156   20.9399 C   0  0  0  0  0  0  0  0  0  0  0  0
  -27.7477    0.9984   21.8781 C   0  0  0  0  0  0  0  0  0  0  0  0
  -20.9679   -3.4966   22.8716 N   0  0  0  0  0  0  0  0  0  0  0  0
  -23.0836   -3.1699   21.8431 N   0  0  0  0  0  0  0  0  0  0  0  0
  -21.8683   -1.3508   22.7000 C   0  0  0  0  0  0  0  0  0  0  0  0
  -20.8665   -2.2017   23.0938 C   0  0  0  0  0  0  0  0  0  0  0  0
  -22.0450   -3.9299   22.2068 C   0  0  0  0  0  0  0  0  0  0  0  0
  -22.9867   -1.8648   22.0560 C   0  0  0  0  0  0  0  0  0  0  0  0
  -21.7301   -0.0258   22.9438 O   0  0  0  0  0  0  0  0  0  0  0  0
  -20.3734    1.9354   23.1389 C   0  0  0  0  0  0  0  0  0  0  0  0
  -19.2250    2.6290   22.7535 C   0  0  0  0  0  0  0  0  0  0  0  0
  -18.3508    2.0208   21.8870 C   0  0  0  0  0  0  0  0  0  0  0  0
  -18.5407    0.7660   21.3576 C   0  0  0  0  0  0  0  0  0  0  0  0
  -19.6895    0.0886   21.7185 C   0  0  0  0  0  0  0  0  0  0  0  0
  -20.6055    0.6869   22.5563 C   0  0  0  0  0  0  0  0  0  0  0  0
  -17.2324    2.6794   21.5135 F   0  0  0  0  0  0  0  0  0  0  0  0
  -21.0052    2.9642   25.3515 N   0  0  0  0  0  0  0  0  0  0  0  0
  -22.5448    2.5266   23.8144 O   0  0  0  0  0  0  0  0  0  0  0  0
  -21.3673    2.4945   24.1440 C   0  0  0  0  0  0  0  0  0  0  0  0
  -19.7318    1.8718   27.1298 C   0  0  0  0  0  0  0  0  0  0  0  0
  -19.6652    2.7819   25.9235 C   0  0  0  0  0  0  0  0  0  0  0  0
  -19.0110    4.1102   26.2047 C   0  0  0  0  0  0  0  0  0  0  0  0
  -21.9753    3.6253   26.2368 C   0  0  0  0  0  0  0  0  0  0  0  0
  -21.3863    4.0683   27.5432 C   0  0  0  0  0  0  0  0  0  0  0  0
  -28.2416    3.1460   22.8939 C   0  0  0  0  0  0  0  0  0  0  0  0
  -28.5558    2.2767   24.1120 C   0  0  1  0  0  0  0  0  0  0  0  0
  -27.6333    2.5678   25.3047 C   0  0  0  0  0  0  0  0  0  0  0  0
  -27.9682    1.7256   26.5243 C   0  0  0  0  0  0  0  0  0  0  0  0
  -30.0248    2.3944   24.5122 C   0  0  0  0  0  0  0  0  0  0  0  0
  -30.3389    1.4981   25.7012 C   0  0  0  0  0  0  0  0  0  0  0  0
  -29.4360    1.8317   26.8777 C   0  0  1  0  0  0  0  0  0  0  0  0
  -29.7622    0.9304   27.9966 N   0  0  0  0  0  0  0  0  0  0  0  0
  -30.7624    0.7440   27.9243 H   0  0  0  0  0  0  0  0  0  0  0  0
  -29.4890    1.3145   29.5579 S   0  0  0  0  0  0  0  0  0  0  0  0
  -29.3901    2.7430   29.5705 O   0  0  0  0  0  0  0  0  0  0  0  0
  -30.5174    0.6752   30.3288 O   0  0  0  0  0  0  0  0  0  0  0  0
  -27.9022    0.6058   29.9641 C   0  0  0  0  0  0  0  0  0  0  0  0
  -27.4241    0.9733   31.3543 C   0  0  0  0  0  0  0  0  0  0  0  0
 27 28  1  0
 24 30  1  0
 24 26  1  0
 41 42  2  0
 41 43  2  0
 41 44  1  0
 24 28  1  0
 28 29  1  0
 10 14  2  0
 16 12  1  0
 11 15  2  0
 30 31  1  0
  1  3  1  0
  1  4  1  0
  2 32  1  0
 25 26  2  0
 26 17  1  0
 41 39  1  0
 17 18  2  0
 17 22  1  0
 18 19  1  0
 19 20  2  0
 19 23  1  0
 20 21  1  0
 21 22  2  0
 16 22  1  0
 12 13  2  0
 12 15  1  0
 10 13  1  0
 11 14  1  0
  1 15  1  0
  3  5  1  0
  4  5  1  0
  5  6  1  0
  5  8  1  0
  6  7  1  0
  2  7  1  0
  8  9  1  0
  2  9  1  0
 33 32  1  6
 33 34  1  0
 33 36  1  0
 34 35  1  0
 35 38  1  0
 36 37  1  0
 37 38  1  0
 38 39  1  1
 44 45  1  0
 39 40  1  0
M  END
>  <minimizedAffinity>  (1) 
-8.07873

>  <CNNscore>  (1) 
0.2416085303

>  <CNNaffinity>  (1) 
6.6480140686

>  <CNN_VS>  (1) 
1.6062169075

>  <CNNaffinity_variance>  (1) 
0.9149861336

$$$$
