NS-C-142.sdf


 26 29  0  0  0  0  0  0  0  0999 V2000
  -19.9593   -6.2158   23.0873 N   0  0  0  0  0  0  0  0  0  0  0  0
  -20.9954   -5.9318   24.0753 C   0  0  0  0  0  0  0  0  0  0  0  0
  -20.9711   -4.4124   24.1966 C   0  0  0  0  0  0  0  0  0  0  0  0
  -20.6610   -3.9563   22.7755 C   0  0  0  0  0  0  0  0  0  0  0  0
  -19.6547   -5.0235   22.2855 C   0  0  0  0  0  0  0  0  0  0  0  0
  -20.4890   -8.5654   22.8010 C   0  0  0  0  0  0  0  0  0  0  0  0
  -20.1353   -9.8676   22.4261 C   0  0  0  0  0  0  0  0  0  0  0  0
  -18.8563  -10.1227   21.9578 C   0  0  0  0  0  0  0  0  0  0  0  0
  -17.9279   -9.1037   21.8550 C   0  0  0  0  0  0  0  0  0  0  0  0
  -18.2931   -7.8116   22.2317 C   0  0  0  0  0  0  0  0  0  0  0  0
  -19.5794   -7.4931   22.7239 C   0  0  0  0  0  0  0  0  0  0  0  0
  -18.5183  -11.3675   21.5986 F   0  0  0  0  0  0  0  0  0  0  0  0
  -17.3498   -6.8616   22.1181 F   0  0  0  0  0  0  0  0  0  0  0  0
  -20.9554   -1.5808   22.2167 C   0  0  0  0  0  0  0  0  0  0  0  0
  -22.0303   -1.7723   21.6617 O   0  0  0  0  0  0  0  0  0  0  0  0
  -20.1740   -2.5854   22.7395 N   0  0  0  0  0  0  0  0  0  0  0  0
  -19.2790   -2.3753   23.0918 H   0  0  0  0  0  0  0  0  0  0  0  0
  -20.4246   -0.1997   22.4229 C   0  0  0  0  0  0  0  0  0  0  0  0
  -20.8814    0.5900   23.4165 C   0  0  0  0  0  0  0  0  0  0  0  0
  -20.3254    1.8557   23.5747 N   0  0  0  0  0  0  0  0  0  0  0  0
  -19.3165    2.3659   22.7736 C   0  0  0  0  0  0  0  0  0  0  0  0
  -18.8112    1.5274   21.7446 C   0  0  0  0  0  0  0  0  0  0  0  0
  -19.3350    0.2964   21.5787 C   0  0  0  0  0  0  0  0  0  0  0  0
  -20.5977    2.8472   24.4743 C   0  0  0  0  0  0  0  0  0  0  0  0
  -19.8328    3.8900   24.2402 N   0  0  0  0  0  0  0  0  0  0  0  0
  -19.0227    3.5862   23.1661 N   0  0  0  0  0  0  0  0  0  0  0  0
 14 18  1  0
 14 15  2  0
 18 19  2  0
 19 20  1  0
 20 21  1  0
 21 22  1  0
 22 23  2  0
 23 18  1  0
 20 24  1  0
 24 25  2  0
 25 26  1  0
 26 21  2  0
  6  7  2  0
  7  8  1  0
  8  9  2  0
  9 10  1  0
 10 11  2  0
 11  6  1  0
  8 12  1  0
 11  1  1  0
  1  2  1  0
  2  3  1  0
  3  4  1  0
  4  5  1  0
  5  1  1  0
  4 16  1  0
 14 16  1  0
 10 13  1  0
 16 17  1  0
M  END
> <minimizedAffinity>
-6.97295

> <CNNscore>
0.7044155598

> <CNNaffinity>
5.6003627777

> <CNN_VS>
3.9449827671

> <CNNaffinity_variance>
0.1039964184

$$$$
NS-C-142.sdf


 26 29  0  0  0  0  0  0  0  0999 V2000
  -21.3772   -1.1286   23.7074 N   0  0  0  0  0  0  0  0  0  0  0  0
  -22.2688   -1.8263   24.6285 C   0  0  0  0  0  0  0  0  0  0  0  0
  -21.9317   -3.2971   24.4119 C   0  0  0  0  0  0  0  0  0  0  0  0
  -20.4301   -3.2736   24.1507 C   0  0  0  0  0  0  0  0  0  0  0  0
  -20.2477   -1.9830   23.3184 C   0  0  0  0  0  0  0  0  0  0  0  0
  -21.7656    0.7832   22.2660 C   0  0  0  0  0  0  0  0  0  0  0  0
  -21.8089    2.1652   22.0435 C   0  0  0  0  0  0  0  0  0  0  0  0
  -21.4884    3.0357   23.0729 C   0  0  0  0  0  0  0  0  0  0  0  0
  -21.1289    2.5527   24.3172 C   0  0  0  0  0  0  0  0  0  0  0  0
  -21.0898    1.1743   24.5254 C   0  0  0  0  0  0  0  0  0  0  0  0
  -21.3981    0.2386   23.5117 C   0  0  0  0  0  0  0  0  0  0  0  0
  -21.5305    4.3571   22.8605 F   0  0  0  0  0  0  0  0  0  0  0  0
  -20.7271    0.7601   25.7510 F   0  0  0  0  0  0  0  0  0  0  0  0
  -20.1245   -4.6664   22.1485 C   0  0  0  0  0  0  0  0  0  0  0  0
  -20.7331   -3.8860   21.4270 O   0  0  0  0  0  0  0  0  0  0  0  0
  -19.9723   -4.4949   23.5052 N   0  0  0  0  0  0  0  0  0  0  0  0
  -19.5506   -5.2035   24.0430 H   0  0  0  0  0  0  0  0  0  0  0  0
  -19.4356   -5.8664   21.5853 C   0  0  0  0  0  0  0  0  0  0  0  0
  -19.8289   -6.4236   20.4216 C   0  0  0  0  0  0  0  0  0  0  0  0
  -19.1274   -7.5223   19.9349 N   0  0  0  0  0  0  0  0  0  0  0  0
  -18.0335   -8.0881   20.5698 C   0  0  0  0  0  0  0  0  0  0  0  0
  -17.5967   -7.4871   21.7803 C   0  0  0  0  0  0  0  0  0  0  0  0
  -18.2618   -6.4194   22.2653 C   0  0  0  0  0  0  0  0  0  0  0  0
  -19.3092   -8.2732   18.8081 C   0  0  0  0  0  0  0  0  0  0  0  0
  -18.4132   -9.2333   18.7575 N   0  0  0  0  0  0  0  0  0  0  0  0
  -17.6064   -9.1163   19.8701 N   0  0  0  0  0  0  0  0  0  0  0  0
 14 18  1  0
 14 15  2  0
 18 19  2  0
 19 20  1  0
 20 21  1  0
 21 22  1  0
 22 23  2  0
 23 18  1  0
 20 24  1  0
 24 25  2  0
 25 26  1  0
 26 21  2  0
  6  7  2  0
  7  8  1  0
  8  9  2  0
  9 10  1  0
 10 11  2  0
 11  6  1  0
  8 12  1  0
 11  1  1  0
  1  2  1  0
  2  3  1  0
  3  4  1  0
  4  5  1  0
  5  1  1  0
  4 16  1  0
 14 16  1  0
 10 13  1  0
 16 17  1  0
M  END
> <minimizedAffinity>
-6.98404

> <CNNscore>
0.6495787501

> <CNNaffinity>
5.4573426247

> <CNN_VS>
3.5449738503

> <CNNaffinity_variance>
0.0281088557

$$$$
NS-C-142.sdf


 26 29  0  0  0  0  0  0  0  0999 V2000
  -20.9437   -0.5309   21.6300 N   0  0  0  0  0  0  0  0  0  0  0  0
  -21.8933   -0.9763   20.6151 C   0  0  0  0  0  0  0  0  0  0  0  0
  -21.5459   -2.4473   20.4170 C   0  0  0  0  0  0  0  0  0  0  0  0
  -21.1490   -2.9011   21.8171 C   0  0  0  0  0  0  0  0  0  0  0  0
  -20.3940   -1.6718   22.3741 C   0  0  0  0  0  0  0  0  0  0  0  0
  -21.9988    1.5230   22.3725 C   0  0  0  0  0  0  0  0  0  0  0  0
  -21.9279    2.8459   22.8266 C   0  0  0  0  0  0  0  0  0  0  0  0
  -20.6914    3.4506   22.9866 C   0  0  0  0  0  0  0  0  0  0  0  0
  -19.5279    2.7594   22.7045 C   0  0  0  0  0  0  0  0  0  0  0  0
  -19.6126    1.4426   22.2530 C   0  0  0  0  0  0  0  0  0  0  0  0
  -20.8451    0.7770   22.0630 C   0  0  0  0  0  0  0  0  0  0  0  0
  -20.6235    4.7151   23.4216 F   0  0  0  0  0  0  0  0  0  0  0  0
  -18.4515    0.8210   21.9873 F   0  0  0  0  0  0  0  0  0  0  0  0
  -20.2342   -4.8925   22.9303 C   0  0  0  0  0  0  0  0  0  0  0  0
  -20.6260   -4.5406   24.0361 O   0  0  0  0  0  0  0  0  0  0  0  0
  -20.3815   -4.1372   21.7898 N   0  0  0  0  0  0  0  0  0  0  0  0
  -19.9647   -4.4352   20.9491 H   0  0  0  0  0  0  0  0  0  0  0  0
  -19.6000   -6.2290   22.7218 C   0  0  0  0  0  0  0  0  0  0  0  0
  -20.3008   -7.3723   22.8672 C   0  0  0  0  0  0  0  0  0  0  0  0
  -19.6605   -8.5846   22.6299 N   0  0  0  0  0  0  0  0  0  0  0  0
  -18.3348   -8.6995   22.2437 C   0  0  0  0  0  0  0  0  0  0  0  0
  -17.6004   -7.4978   22.0601 C   0  0  0  0  0  0  0  0  0  0  0  0
  -18.2053   -6.3136   22.2817 C   0  0  0  0  0  0  0  0  0  0  0  0
  -20.1184   -9.8694   22.7081 C   0  0  0  0  0  0  0  0  0  0  0  0
  -19.1531  -10.7102   22.4107 N   0  0  0  0  0  0  0  0  0  0  0  0
  -18.0261   -9.9715   22.1165 N   0  0  0  0  0  0  0  0  0  0  0  0
 14 18  1  0
 14 15  2  0
 18 19  2  0
 19 20  1  0
 20 21  1  0
 21 22  1  0
 22 23  2  0
 23 18  1  0
 20 24  1  0
 24 25  2  0
 25 26  1  0
 26 21  2  0
  6  7  2  0
  7  8  1  0
  8  9  2  0
  9 10  1  0
 10 11  2  0
 11  6  1  0
  8 12  1  0
 11  1  1  0
  1  2  1  0
  2  3  1  0
  3  4  1  0
  4  5  1  0
  5  1  1  0
  4 16  1  0
 14 16  1  0
 10 13  1  0
 16 17  1  0
M  END
> <minimizedAffinity>
-6.77119

> <CNNscore>
0.6285856366

> <CNNaffinity>
5.5919575691

> <CNN_VS>
3.5150241852

> <CNNaffinity_variance>
0.0628211573

$$$$
NS-C-142.sdf


 26 29  0  0  0  0  0  0  0  0999 V2000
  -21.1888   -0.8191   24.6117 N   0  0  0  0  0  0  0  0  0  0  0  0
  -21.1942   -0.1518   23.3136 C   0  0  0  0  0  0  0  0  0  0  0  0
  -20.5303   -1.1629   22.3857 C   0  0  0  0  0  0  0  0  0  0  0  0
  -21.0154   -2.5021   22.9287 C   0  0  0  0  0  0  0  0  0  0  0  0
  -21.0201   -2.2700   24.4576 C   0  0  0  0  0  0  0  0  0  0  0  0
  -22.7275   -0.7523   26.4855 C   0  0  0  0  0  0  0  0  0  0  0  0
  -23.1871   -0.1791   27.6777 C   0  0  0  0  0  0  0  0  0  0  0  0
  -22.5486    0.9380   28.1922 C   0  0  0  0  0  0  0  0  0  0  0  0
  -21.4611    1.4896   27.5409 C   0  0  0  0  0  0  0  0  0  0  0  0
  -21.0136    0.9090   26.3546 C   0  0  0  0  0  0  0  0  0  0  0  0
  -21.6297   -0.2252   25.7782 C   0  0  0  0  0  0  0  0  0  0  0  0
  -22.9874    1.4856   29.3325 F   0  0  0  0  0  0  0  0  0  0  0  0
  -19.9580    1.4900   25.7602 F   0  0  0  0  0  0  0  0  0  0  0  0
  -20.6919   -4.8822   22.4069 C   0  0  0  0  0  0  0  0  0  0  0  0
  -21.8038   -5.1949   22.8146 O   0  0  0  0  0  0  0  0  0  0  0  0
  -20.1829   -3.6057   22.4739 N   0  0  0  0  0  0  0  0  0  0  0  0
  -19.2488   -3.4377   22.2123 H   0  0  0  0  0  0  0  0  0  0  0  0
  -19.8032   -5.8791   21.7374 C   0  0  0  0  0  0  0  0  0  0  0  0
  -20.0739   -6.3469   20.5016 C   0  0  0  0  0  0  0  0  0  0  0  0
  -19.1912   -7.2518   19.9203 N   0  0  0  0  0  0  0  0  0  0  0  0
  -18.0336   -7.7077   20.5302 C   0  0  0  0  0  0  0  0  0  0  0  0
  -17.7281   -7.1957   21.8193 C   0  0  0  0  0  0  0  0  0  0  0  0
  -18.5699   -6.3151   22.3968 C   0  0  0  0  0  0  0  0  0  0  0  0
  -19.2224   -7.8800   18.7075 C   0  0  0  0  0  0  0  0  0  0  0  0
  -18.1801   -8.6708   18.5831 N   0  0  0  0  0  0  0  0  0  0  0  0
  -17.4282   -8.5618   19.7342 N   0  0  0  0  0  0  0  0  0  0  0  0
 14 18  1  0
 14 15  2  0
 18 19  2  0
 19 20  1  0
 20 21  1  0
 21 22  1  0
 22 23  2  0
 23 18  1  0
 20 24  1  0
 24 25  2  0
 25 26  1  0
 26 21  2  0
  6  7  2  0
  7  8  1  0
  8  9  2  0
  9 10  1  0
 10 11  2  0
 11  6  1  0
  8 12  1  0
 11  1  1  0
  1  2  1  0
  2  3  1  0
  3  4  1  0
  4  5  1  0
  5  1  1  0
  4 16  1  0
 14 16  1  0
 10 13  1  0
 16 17  1  0
M  END
> <minimizedAffinity>
-6.67291

> <CNNscore>
0.6250849962

> <CNNaffinity>
5.7165999413

> <CNN_VS>
3.5733609200

> <CNNaffinity_variance>
0.0711057261

$$$$
NS-C-142.sdf


 26 29  0  0  0  0  0  0  0  0999 V2000
  -21.2736   -0.3111   22.7362 N   0  0  0  0  0  0  0  0  0  0  0  0
  -22.3274   -0.4999   21.7443 C   0  0  0  0  0  0  0  0  0  0  0  0
  -21.9233   -1.7839   21.0288 C   0  0  0  0  0  0  0  0  0  0  0  0
  -21.3077   -2.6224   22.1431 C   0  0  0  0  0  0  0  0  0  0  0  0
  -20.5575   -1.5681   22.9901 C   0  0  0  0  0  0  0  0  0  0  0  0
  -21.4249    0.6665   24.9508 C   0  0  0  0  0  0  0  0  0  0  0  0
  -21.3377    1.7624   25.8185 C   0  0  0  0  0  0  0  0  0  0  0  0
  -21.0099    3.0111   25.3150 C   0  0  0  0  0  0  0  0  0  0  0  0
  -20.7659    3.1842   23.9654 C   0  0  0  0  0  0  0  0  0  0  0  0
  -20.8561    2.0846   23.1124 C   0  0  0  0  0  0  0  0  0  0  0  0
  -21.1943    0.7895   23.5671 C   0  0  0  0  0  0  0  0  0  0  0  0
  -20.9256    4.0587   26.1446 F   0  0  0  0  0  0  0  0  0  0  0  0
  -20.6161    2.3111   21.8100 F   0  0  0  0  0  0  0  0  0  0  0  0
  -20.0877   -4.7368   22.4310 C   0  0  0  0  0  0  0  0  0  0  0  0
  -20.3039   -4.7787   23.6358 O   0  0  0  0  0  0  0  0  0  0  0  0
  -20.4786   -3.6972   21.6188 N   0  0  0  0  0  0  0  0  0  0  0  0
  -20.1953   -3.6805   20.6760 H   0  0  0  0  0  0  0  0  0  0  0  0
  -19.4145   -5.8678   21.7244 C   0  0  0  0  0  0  0  0  0  0  0  0
  -19.8267   -6.2855   20.5098 C   0  0  0  0  0  0  0  0  0  0  0  0
  -19.1392   -7.3247   19.8906 N   0  0  0  0  0  0  0  0  0  0  0  0
  -18.0412   -7.9657   20.4414 C   0  0  0  0  0  0  0  0  0  0  0  0
  -17.5846   -7.5102   21.7069 C   0  0  0  0  0  0  0  0  0  0  0  0
  -18.2359   -6.5017   22.3202 C   0  0  0  0  0  0  0  0  0  0  0  0
  -19.3409   -7.9402   18.6877 C   0  0  0  0  0  0  0  0  0  0  0  0
  -18.4523   -8.8930   18.5149 N   0  0  0  0  0  0  0  0  0  0  0  0
  -17.6304   -8.9091   19.6225 N   0  0  0  0  0  0  0  0  0  0  0  0
 14 18  1  0
 14 15  2  0
 18 19  2  0
 19 20  1  0
 20 21  1  0
 21 22  1  0
 22 23  2  0
 23 18  1  0
 20 24  1  0
 24 25  2  0
 25 26  1  0
 26 21  2  0
  6  7  2  0
  7  8  1  0
  8  9  2  0
  9 10  1  0
 10 11  2  0
 11  6  1  0
  8 12  1  0
 11  1  1  0
  1  2  1  0
  2  3  1  0
  3  4  1  0
  4  5  1  0
  5  1  1  0
  4 16  1  0
 14 16  1  0
 10 13  1  0
 16 17  1  0
M  END
> <minimizedAffinity>
-7.26969

> <CNNscore>
0.5722789764

> <CNNaffinity>
5.4469428062

> <CNN_VS>
3.1171708107

> <CNNaffinity_variance>
0.0338101424

$$$$
NS-C-142.sdf


 26 29  0  0  0  0  0  0  0  0999 V2000
  -21.3279   -3.8489   21.8766 N   0  0  0  0  0  0  0  0  0  0  0  0
  -22.7534   -4.0526   21.6389 C   0  0  0  0  0  0  0  0  0  0  0  0
  -23.3772   -2.7149   22.0199 C   0  0  0  0  0  0  0  0  0  0  0  0
  -22.3278   -1.7035   21.5732 C   0  0  0  0  0  0  0  0  0  0  0  0
  -20.9985   -2.4180   21.9107 C   0  0  0  0  0  0  0  0  0  0  0  0
  -20.3717   -5.6767   20.6006 C   0  0  0  0  0  0  0  0  0  0  0  0
  -19.4143   -6.6836   20.4253 C   0  0  0  0  0  0  0  0  0  0  0  0
  -18.4354   -6.8740   21.3875 C   0  0  0  0  0  0  0  0  0  0  0  0
  -18.3940   -6.0779   22.5168 C   0  0  0  0  0  0  0  0  0  0  0  0
  -19.3534   -5.0787   22.6790 C   0  0  0  0  0  0  0  0  0  0  0  0
  -20.3798   -4.8435   21.7359 C   0  0  0  0  0  0  0  0  0  0  0  0
  -17.5195   -7.8362   21.2196 F   0  0  0  0  0  0  0  0  0  0  0  0
  -19.2703   -4.3397   23.7980 F   0  0  0  0  0  0  0  0  0  0  0  0
  -22.7926    0.7076   21.4606 C   0  0  0  0  0  0  0  0  0  0  0  0
  -22.7943    0.7213   20.2359 O   0  0  0  0  0  0  0  0  0  0  0  0
  -22.5137   -0.4099   22.2133 N   0  0  0  0  0  0  0  0  0  0  0  0
  -22.4395   -0.3337   23.1921 H   0  0  0  0  0  0  0  0  0  0  0  0
  -23.1579    1.9222   22.2499 C   0  0  0  0  0  0  0  0  0  0  0  0
  -24.4393    2.1959   22.5699 C   0  0  0  0  0  0  0  0  0  0  0  0
  -24.7117    3.3273   23.3326 N   0  0  0  0  0  0  0  0  0  0  0  0
  -23.7425    4.2018   23.7974 C   0  0  0  0  0  0  0  0  0  0  0  0
  -22.3889    3.9022   23.4886 C   0  0  0  0  0  0  0  0  0  0  0  0
  -22.1056    2.8081   22.7538 C   0  0  0  0  0  0  0  0  0  0  0  0
  -25.8950    3.8381   23.7858 C   0  0  0  0  0  0  0  0  0  0  0  0
  -25.6785    4.9446   24.4611 N   0  0  0  0  0  0  0  0  0  0  0  0
  -24.3185    5.1745   24.4693 N   0  0  0  0  0  0  0  0  0  0  0  0
 14 18  1  0
 14 15  2  0
 18 19  2  0
 19 20  1  0
 20 21  1  0
 21 22  1  0
 22 23  2  0
 23 18  1  0
 20 24  1  0
 24 25  2  0
 25 26  1  0
 26 21  2  0
  6  7  2  0
  7  8  1  0
  8  9  2  0
  9 10  1  0
 10 11  2  0
 11  6  1  0
  8 12  1  0
 11  1  1  0
  1  2  1  0
  2  3  1  0
  3  4  1  0
  4  5  1  0
  5  1  1  0
  4 16  1  0
 14 16  1  0
 10 13  1  0
 16 17  1  0
M  END
> <minimizedAffinity>
-6.84650

> <CNNscore>
0.5202736855

> <CNNaffinity>
5.0797023773

> <CNN_VS>
2.6428353786

> <CNNaffinity_variance>
0.2835822701

$$$$
NS-C-142.sdf


 26 29  0  0  0  0  0  0  0  0999 V2000
  -20.1232   -4.8127   23.2738 N   0  0  0  0  0  0  0  0  0  0  0  0
  -21.1860   -5.2041   24.1943 C   0  0  0  0  0  0  0  0  0  0  0  0
  -21.4422   -3.9404   25.0075 C   0  0  0  0  0  0  0  0  0  0  0  0
  -21.2331   -2.8251   23.9896 C   0  0  0  0  0  0  0  0  0  0  0  0
  -20.0507   -3.3516   23.1432 C   0  0  0  0  0  0  0  0  0  0  0  0
  -18.2747   -6.2741   22.6989 C   0  0  0  0  0  0  0  0  0  0  0  0
  -17.6434   -7.1725   21.8296 C   0  0  0  0  0  0  0  0  0  0  0  0
  -18.2500   -7.5060   20.6291 C   0  0  0  0  0  0  0  0  0  0  0  0
  -19.4730   -6.9622   20.2833 C   0  0  0  0  0  0  0  0  0  0  0  0
  -20.0908   -6.0688   21.1581 C   0  0  0  0  0  0  0  0  0  0  0  0
  -19.5164   -5.6853   22.3915 C   0  0  0  0  0  0  0  0  0  0  0  0
  -17.6470   -8.3656   19.7983 F   0  0  0  0  0  0  0  0  0  0  0  0
  -21.2740   -5.5654   20.7687 F   0  0  0  0  0  0  0  0  0  0  0  0
  -21.5676   -0.3932   24.1148 C   0  0  0  0  0  0  0  0  0  0  0  0
  -22.1790   -0.3520   23.0543 O   0  0  0  0  0  0  0  0  0  0  0  0
  -21.0084   -1.5389   24.6322 N   0  0  0  0  0  0  0  0  0  0  0  0
  -20.4522   -1.4882   25.4429 H   0  0  0  0  0  0  0  0  0  0  0  0
  -21.4278    0.8191   24.9765 C   0  0  0  0  0  0  0  0  0  0  0  0
  -21.3784    0.7263   26.3212 C   0  0  0  0  0  0  0  0  0  0  0  0
  -21.2174    1.8898   27.0670 N   0  0  0  0  0  0  0  0  0  0  0  0
  -21.0972    3.1551   26.5150 C   0  0  0  0  0  0  0  0  0  0  0  0
  -21.1187    3.2554   25.0984 C   0  0  0  0  0  0  0  0  0  0  0  0
  -21.2700    2.1382   24.3592 C   0  0  0  0  0  0  0  0  0  0  0  0
  -21.1438    2.0850   28.4172 C   0  0  0  0  0  0  0  0  0  0  0  0
  -21.0056    3.3653   28.6801 N   0  0  0  0  0  0  0  0  0  0  0  0
  -20.9754    4.0418   27.4785 N   0  0  0  0  0  0  0  0  0  0  0  0
 14 18  1  0
 14 15  2  0
 18 19  2  0
 19 20  1  0
 20 21  1  0
 21 22  1  0
 22 23  2  0
 23 18  1  0
 20 24  1  0
 24 25  2  0
 25 26  1  0
 26 21  2  0
  6  7  2  0
  7  8  1  0
  8  9  2  0
  9 10  1  0
 10 11  2  0
 11  6  1  0
  8 12  1  0
 11  1  1  0
  1  2  1  0
  2  3  1  0
  3  4  1  0
  4  5  1  0
  5  1  1  0
  4 16  1  0
 14 16  1  0
 10 13  1  0
 16 17  1  0
M  END
> <minimizedAffinity>
-6.69445

> <CNNscore>
0.4038490057

> <CNNaffinity>
5.3695869446

> <CNN_VS>
2.1685023308

> <CNNaffinity_variance>
0.0795883834

$$$$
NS-C-142.sdf


 26 29  0  0  0  0  0  0  0  0999 V2000
  -18.8573  -10.2777   22.1926 N   0  0  0  0  0  0  0  0  0  0  0  0
  -18.0324  -11.1726   22.9981 C   0  0  0  0  0  0  0  0  0  0  0  0
  -18.4180  -12.5618   22.5028 C   0  0  0  0  0  0  0  0  0  0  0  0
  -18.6619  -12.3435   21.0140 C   0  0  0  0  0  0  0  0  0  0  0  0
  -19.3346  -10.9515   20.9780 C   0  0  0  0  0  0  0  0  0  0  0  0
  -17.8126   -8.1023   21.9485 C   0  0  0  0  0  0  0  0  0  0  0  0
  -17.8252   -6.7098   22.0975 C   0  0  0  0  0  0  0  0  0  0  0  0
  -18.9279   -6.0909   22.6644 C   0  0  0  0  0  0  0  0  0  0  0  0
  -20.0157   -6.8348   23.0816 C   0  0  0  0  0  0  0  0  0  0  0  0
  -19.9902   -8.2207   22.9275 C   0  0  0  0  0  0  0  0  0  0  0  0
  -18.8906   -8.9075   22.3642 C   0  0  0  0  0  0  0  0  0  0  0  0
  -18.9404   -4.7595   22.8060 F   0  0  0  0  0  0  0  0  0  0  0  0
  -21.0705   -8.8945   23.3565 F   0  0  0  0  0  0  0  0  0  0  0  0
  -19.7097  -13.4375   19.0783 C   0  0  0  0  0  0  0  0  0  0  0  0
  -19.4189  -12.5241   18.3159 O   0  0  0  0  0  0  0  0  0  0  0  0
  -19.4429  -13.4225   20.4280 N   0  0  0  0  0  0  0  0  0  0  0  0
  -19.7829  -14.1469   21.0014 H   0  0  0  0  0  0  0  0  0  0  0  0
  -20.3426  -14.6943   18.5765 C   0  0  0  0  0  0  0  0  0  0  0  0
  -20.1333  -15.1356   17.3192 C   0  0  0  0  0  0  0  0  0  0  0  0
  -20.7276  -16.3292   16.9212 N   0  0  0  0  0  0  0  0  0  0  0  0
  -21.5266  -17.1096   17.7413 C   0  0  0  0  0  0  0  0  0  0  0  0
  -21.7260  -16.6649   19.0754 C   0  0  0  0  0  0  0  0  0  0  0  0
  -21.1550  -15.5127   19.4799 C   0  0  0  0  0  0  0  0  0  0  0  0
  -20.6918  -16.9928   15.7276 C   0  0  0  0  0  0  0  0  0  0  0  0
  -21.4204  -18.0844   15.7974 N   0  0  0  0  0  0  0  0  0  0  0  0
  -21.9475  -18.1590   17.0698 N   0  0  0  0  0  0  0  0  0  0  0  0
 14 18  1  0
 14 15  2  0
 18 19  2  0
 19 20  1  0
 20 21  1  0
 21 22  1  0
 22 23  2  0
 23 18  1  0
 20 24  1  0
 24 25  2  0
 25 26  1  0
 26 21  2  0
  6  7  2  0
  7  8  1  0
  8  9  2  0
  9 10  1  0
 10 11  2  0
 11  6  1  0
  8 12  1  0
 11  1  1  0
  1  2  1  0
  2  3  1  0
  3  4  1  0
  4  5  1  0
  5  1  1  0
  4 16  1  0
 14 16  1  0
 10 13  1  0
 16 17  1  0
M  END
> <minimizedAffinity>
-7.75044

> <CNNscore>
0.3873612881

> <CNNaffinity>
5.5101170540

> <CNN_VS>
2.1344060898

> <CNNaffinity_variance>
0.0861674175

$$$$
NS-C-142.sdf


 26 29  0  0  0  0  0  0  0  0999 V2000
  -22.3387    3.2551   24.1576 N   0  0  0  0  0  0  0  0  0  0  0  0
  -23.3663    4.2782   24.3233 C   0  0  0  0  0  0  0  0  0  0  0  0
  -24.4690    3.8401   23.3662 C   0  0  0  0  0  0  0  0  0  0  0  0
  -24.4169    2.3190   23.4507 C   0  0  0  0  0  0  0  0  0  0  0  0
  -22.9012    2.0344   23.5655 C   0  0  0  0  0  0  0  0  0  0  0  0
  -19.9400    2.8988   24.1095 C   0  0  0  0  0  0  0  0  0  0  0  0
  -18.6788    2.9449   24.7166 C   0  0  0  0  0  0  0  0  0  0  0  0
  -18.5616    3.4004   26.0201 C   0  0  0  0  0  0  0  0  0  0  0  0
  -19.6773    3.8116   26.7252 C   0  0  0  0  0  0  0  0  0  0  0  0
  -20.9272    3.7606   26.1087 C   0  0  0  0  0  0  0  0  0  0  0  0
  -21.1091    3.2980   24.7854 C   0  0  0  0  0  0  0  0  0  0  0  0
  -17.3558    3.4453   26.6004 F   0  0  0  0  0  0  0  0  0  0  0  0
  -21.9776    4.1654   26.8422 F   0  0  0  0  0  0  0  0  0  0  0  0
  -24.3418    1.1193   21.3067 C   0  0  0  0  0  0  0  0  0  0  0  0
  -23.1219    1.1933   21.2278 O   0  0  0  0  0  0  0  0  0  0  0  0
  -25.0797    1.6895   22.3183 N   0  0  0  0  0  0  0  0  0  0  0  0
  -26.0631    1.6715   22.2759 H   0  0  0  0  0  0  0  0  0  0  0  0
  -25.1367    0.3355   20.3138 C   0  0  0  0  0  0  0  0  0  0  0  0
  -26.1556   -0.4607   20.6973 C   0  0  0  0  0  0  0  0  0  0  0  0
  -26.8767   -1.1418   19.7215 N   0  0  0  0  0  0  0  0  0  0  0  0
  -26.6196   -1.0528   18.3628 C   0  0  0  0  0  0  0  0  0  0  0  0
  -25.5670   -0.1927   17.9512 C   0  0  0  0  0  0  0  0  0  0  0  0
  -24.8598    0.4783   18.8824 C   0  0  0  0  0  0  0  0  0  0  0  0
  -27.9315   -2.0037   19.8258 C   0  0  0  0  0  0  0  0  0  0  0  0
  -28.2878   -2.4256   18.6331 N   0  0  0  0  0  0  0  0  0  0  0  0
  -27.4596   -1.8245   17.7083 N   0  0  0  0  0  0  0  0  0  0  0  0
 14 18  1  0
 14 15  2  0
 18 19  2  0
 19 20  1  0
 20 21  1  0
 21 22  1  0
 22 23  2  0
 23 18  1  0
 20 24  1  0
 24 25  2  0
 25 26  1  0
 26 21  2  0
  6  7  2  0
  7  8  1  0
  8  9  2  0
  9 10  1  0
 10 11  2  0
 11  6  1  0
  8 12  1  0
 11  1  1  0
  1  2  1  0
  2  3  1  0
  3  4  1  0
  4  5  1  0
  5  1  1  0
  4 16  1  0
 14 16  1  0
 10 13  1  0
 16 17  1  0
M  END
> <minimizedAffinity>
-6.44584

> <CNNscore>
0.3870901763

> <CNNaffinity>
5.2818942070

> <CNN_VS>
2.0445692539

> <CNNaffinity_variance>
0.1705784351

$$$$
NS-C-142.sdf


 26 29  0  0  0  0  0  0  0  0999 V2000
  -21.6907    0.0830   20.8119 N   0  0  0  0  0  0  0  0  0  0  0  0
  -22.1273   -0.1313   19.4358 C   0  0  0  0  0  0  0  0  0  0  0  0
  -21.5061   -1.4733   19.0653 C   0  0  0  0  0  0  0  0  0  0  0  0
  -21.5760   -2.2592   20.3696 C   0  0  0  0  0  0  0  0  0  0  0  0
  -21.2757   -1.1801   21.4358 C   0  0  0  0  0  0  0  0  0  0  0  0
  -20.9217    2.0931   21.9305 C   0  0  0  0  0  0  0  0  0  0  0  0
  -21.1681    3.2711   22.6467 C   0  0  0  0  0  0  0  0  0  0  0  0
  -22.4702    3.6157   22.9727 C   0  0  0  0  0  0  0  0  0  0  0  0
  -23.5274    2.8089   22.5956 C   0  0  0  0  0  0  0  0  0  0  0  0
  -23.2681    1.6385   21.8828 C   0  0  0  0  0  0  0  0  0  0  0  0
  -21.9612    1.2319   21.5294 C   0  0  0  0  0  0  0  0  0  0  0  0
  -22.7059    4.7424   23.6566 F   0  0  0  0  0  0  0  0  0  0  0  0
  -24.3316    0.8888   21.5483 F   0  0  0  0  0  0  0  0  0  0  0  0
  -20.8844   -4.4644   21.2066 C   0  0  0  0  0  0  0  0  0  0  0  0
  -21.7588   -4.4911   22.0639 O   0  0  0  0  0  0  0  0  0  0  0  0
  -20.6671   -3.3957   20.3677 N   0  0  0  0  0  0  0  0  0  0  0  0
  -19.8912   -3.4000   19.7618 H   0  0  0  0  0  0  0  0  0  0  0  0
  -20.0008   -5.6442   20.9636 C   0  0  0  0  0  0  0  0  0  0  0  0
  -20.0205   -6.3100   19.7906 C   0  0  0  0  0  0  0  0  0  0  0  0
  -19.1519   -7.3827   19.6153 N   0  0  0  0  0  0  0  0  0  0  0  0
  -18.2513   -7.8170   20.5746 C   0  0  0  0  0  0  0  0  0  0  0  0
  -18.2055   -7.1011   21.8004 C   0  0  0  0  0  0  0  0  0  0  0  0
  -19.0370   -6.0565   21.9868 C   0  0  0  0  0  0  0  0  0  0  0  0
  -18.9689   -8.2222   18.5531 C   0  0  0  0  0  0  0  0  0  0  0  0
  -18.0438   -9.1118   18.8365 N   0  0  0  0  0  0  0  0  0  0  0  0
  -17.5896   -8.8557   20.1135 N   0  0  0  0  0  0  0  0  0  0  0  0
 14 18  1  0
 14 15  2  0
 18 19  2  0
 19 20  1  0
 20 21  1  0
 21 22  1  0
 22 23  2  0
 23 18  1  0
 20 24  1  0
 24 25  2  0
 25 26  1  0
 26 21  2  0
  6  7  2  0
  7  8  1  0
  8  9  2  0
  9 10  1  0
 10 11  2  0
 11  6  1  0
  8 12  1  0
 11  1  1  0
  1  2  1  0
  2  3  1  0
  3  4  1  0
  4  5  1  0
  5  1  1  0
  4 16  1  0
 14 16  1  0
 10 13  1  0
 16 17  1  0
M  END
> <minimizedAffinity>
-7.28639

> <CNNscore>
0.3802568913

> <CNNaffinity>
5.1305160522

> <CNN_VS>
1.9509140253

> <CNNaffinity_variance>
0.2649562657

$$$$
