7uj4


 45 49  0  0  0  0  0  0  0  0999 V2000
  -24.0677   -1.6564   25.0460 N   0  0  0  0  0  0  0  0  0  0  0  0
  -20.6039   -4.8251   23.7107 N   0  0  0  0  0  0  0  0  0  0  0  0
  -23.1583   -2.0352   23.9776 C   0  0  0  0  0  0  0  0  0  0  0  0
  -23.8234   -2.7299   26.0023 C   0  0  0  0  0  0  0  0  0  0  0  0
  -22.7210   -3.2024   24.9648 C   0  0  0  0  0  0  0  0  0  0  0  0
  -21.2655   -3.1198   25.4229 C   0  0  0  0  0  0  0  0  0  0  0  0
  -20.3226   -3.4641   24.2929 C   0  0  0  0  0  0  0  0  0  0  0  0
  -22.9746   -4.6023   24.4124 C   0  0  0  0  0  0  0  0  0  0  0  0
  -22.0342   -4.9533   23.2862 C   0  0  0  0  0  0  0  0  0  0  0  0
  -26.1422    1.8398   25.3455 N   0  0  0  0  0  0  0  0  0  0  0  0
  -25.8879   -0.3527   24.4685 N   0  0  0  0  0  0  0  0  0  0  0  0
  -24.3326    0.5194   25.9985 C   0  0  0  0  0  0  0  0  0  0  0  0
  -25.0438    1.6913   26.0582 C   0  0  0  0  0  0  0  0  0  0  0  0
  -26.5563    0.7960   24.6184 C   0  0  0  0  0  0  0  0  0  0  0  0
  -24.7856   -0.5135   25.1877 C   0  0  0  0  0  0  0  0  0  0  0  0
  -23.2088    0.4014   26.7452 O   0  0  0  0  0  0  0  0  0  0  0  0
  -21.5846    2.1468   26.5447 C   0  0  0  0  0  0  0  0  0  0  0  0
  -20.9642    3.2630   27.1081 C   0  0  0  0  0  0  0  0  0  0  0  0
  -21.4003    3.7086   28.3313 C   0  0  0  0  0  0  0  0  0  0  0  0
  -22.4091    3.1136   29.0516 C   0  0  0  0  0  0  0  0  0  0  0  0
  -23.0071    1.9936   28.5067 C   0  0  0  0  0  0  0  0  0  0  0  0
  -22.5665    1.4988   27.2984 C   0  0  0  0  0  0  0  0  0  0  0  0
  -20.8125    4.7926   28.8825 F   0  0  0  0  0  0  0  0  0  0  0  0
  -21.2958    2.3631   24.0501 N   0  0  0  0  0  0  0  0  0  0  0  0
  -20.8250    0.4622   25.0937 O   0  0  0  0  0  0  0  0  0  0  0  0
  -21.2201    1.6173   25.1672 C   0  0  0  0  0  0  0  0  0  0  0  0
  -23.4232    3.5167   23.7029 C   0  0  0  0  0  0  0  0  0  0  0  0
  -21.9480    3.6776   23.9958 C   0  0  0  0  0  0  0  0  0  0  0  0
  -21.2380    4.5950   23.0336 C   0  0  0  0  0  0  0  0  0  0  0  0
  -20.8010    1.8599   22.7602 C   0  0  0  0  0  0  0  0  0  0  0  0
  -21.7845    0.9820   22.0448 C   0  0  0  0  0  0  0  0  0  0  0  0
  -19.7366   -5.0731   22.5150 C   0  0  0  0  0  0  0  0  0  0  0  0
  -18.9404   -6.3764   22.5900 C   0  0  0  0  0  0  0  0  0  0  0  0
  -19.6352   -7.4502   23.4399 C   0  0  0  0  0  0  0  0  0  0  0  0
  -18.8578   -8.7550   23.4864 C   0  0  0  0  0  0  0  0  0  0  0  0
  -18.6129   -6.9062   21.1957 C   0  0  0  0  0  0  0  0  0  0  0  0
  -17.7884   -8.1826   21.2778 C   0  0  0  0  0  0  0  0  0  0  0  0
  -18.5152   -9.2392   22.0941 C   0  0  0  0  0  0  0  0  0  0  0  0
  -17.6749  -10.4474   22.1618 N   0  0  0  0  0  0  0  0  0  0  0  0
  -16.9031  -10.2892   21.5140 H   0  0  0  0  0  0  0  0  0  0  0  0
  -18.2374  -11.9425   21.8327 S   0  0  0  0  0  0  0  0  0  0  0  0
  -19.1897  -11.7509   20.7807 O   0  0  0  0  0  0  0  0  0  0  0  0
  -17.0916  -12.7751   21.5996 O   0  0  0  0  0  0  0  0  0  0  0  0
  -19.0839  -12.4810   23.3089 C   0  0  0  0  0  0  0  0  0  0  0  0
  -20.1502  -13.5228   23.0375 C   0  0  0  0  0  0  0  0  0  0  0  0
 27 28  1  0
 24 30  1  0
 24 26  1  0
 41 42  2  0
 41 43  2  0
 41 44  1  0
 24 28  1  0
 28 29  1  0
 10 14  2  0
 16 12  1  0
 11 15  2  0
 30 31  1  0
  1  3  1  0
  1  4  1  0
  2 32  1  0
 25 26  2  0
 26 17  1  0
 41 39  1  0
 17 18  2  0
 17 22  1  0
 18 19  1  0
 19 20  2  0
 19 23  1  0
 20 21  1  0
 21 22  2  0
 16 22  1  0
 12 13  2  0
 12 15  1  0
 10 13  1  0
 11 14  1  0
  1 15  1  0
  3  5  1  0
  4  5  1  0
  5  6  1  0
  5  8  1  0
  6  7  1  0
  2  7  1  0
  8  9  1  0
  2  9  1  0
 32 33  1  0
 33 34  1  0
 33 36  1  0
 34 35  1  0
 35 38  1  0
 36 37  1  0
 37 38  1  0
 39 38  1  0
 44 45  1  0
 39 40  1  0
M  END
> <minimizedAffinity>
-7.93407

> <CNNscore>
0.7100887895

> <CNNaffinity>
7.5756554604

> <CNN_VS>
5.3793878555

> <CNNaffinity_variance>
0.1067264006

$$$$
7uj4


 45 49  0  0  0  0  0  0  0  0999 V2000
  -22.9952   -0.7719   25.9545 N   0  0  0  0  0  0  0  0  0  0  0  0
  -20.7390   -4.1658   23.2688 N   0  0  0  0  0  0  0  0  0  0  0  0
  -21.7098   -1.3762   25.6468 C   0  0  0  0  0  0  0  0  0  0  0  0
  -23.8540   -1.4621   24.9992 C   0  0  0  0  0  0  0  0  0  0  0  0
  -22.5416   -2.2726   24.6308 C   0  0  0  0  0  0  0  0  0  0  0  0
  -22.5375   -3.7635   24.9662 C   0  0  0  0  0  0  0  0  0  0  0  0
  -21.1825   -4.3754   24.6934 C   0  0  0  0  0  0  0  0  0  0  0  0
  -22.1189   -2.1044   23.1740 C   0  0  0  0  0  0  0  0  0  0  0  0
  -20.7685   -2.7162   22.8945 C   0  0  0  0  0  0  0  0  0  0  0  0
  -24.1301    1.7267   28.9687 N   0  0  0  0  0  0  0  0  0  0  0  0
  -23.9730   -0.4469   28.0244 N   0  0  0  0  0  0  0  0  0  0  0  0
  -23.0766    1.4172   26.9098 C   0  0  0  0  0  0  0  0  0  0  0  0
  -23.4926    2.2323   27.9321 C   0  0  0  0  0  0  0  0  0  0  0  0
  -24.3005    0.4004   29.0061 C   0  0  0  0  0  0  0  0  0  0  0  0
  -23.3245    0.0522   26.9811 C   0  0  0  0  0  0  0  0  0  0  0  0
  -22.4235    1.9710   25.8605 O   0  0  0  0  0  0  0  0  0  0  0  0
  -20.2799    2.4477   24.9106 C   0  0  0  0  0  0  0  0  0  0  0  0
  -19.0268    3.0476   25.0464 C   0  0  0  0  0  0  0  0  0  0  0  0
  -18.7603    3.7588   26.1901 C   0  0  0  0  0  0  0  0  0  0  0  0
  -19.6504    3.9093   27.2272 C   0  0  0  0  0  0  0  0  0  0  0  0
  -20.8819    3.2950   27.1051 C   0  0  0  0  0  0  0  0  0  0  0  0
  -21.1663    2.5422   25.9864 C   0  0  0  0  0  0  0  0  0  0  0  0
  -17.5539    4.3501   26.3288 F   0  0  0  0  0  0  0  0  0  0  0  0
  -21.2584    2.2982   22.5926 N   0  0  0  0  0  0  0  0  0  0  0  0
  -20.4825    0.4926   23.6233 O   0  0  0  0  0  0  0  0  0  0  0  0
  -20.6949    1.6967   23.6558 C   0  0  0  0  0  0  0  0  0  0  0  0
  -20.6171    4.6277   22.9660 C   0  0  0  0  0  0  0  0  0  0  0  0
  -21.7437    3.6839   22.6081 C   0  0  0  0  0  0  0  0  0  0  0  0
  -22.9536    3.8241   23.4958 C   0  0  0  0  0  0  0  0  0  0  0  0
  -21.5152    1.5626   21.3456 C   0  0  0  0  0  0  0  0  0  0  0  0
  -20.2750    1.2879   20.5480 C   0  0  0  0  0  0  0  0  0  0  0  0
  -19.3425   -4.6711   23.0749 C   0  0  0  0  0  0  0  0  0  0  0  0
  -19.2677   -6.0145   22.3482 C   0  0  0  0  0  0  0  0  0  0  0  0
  -19.7885   -5.9404   20.9055 C   0  0  0  0  0  0  0  0  0  0  0  0
  -19.6833   -7.2688   20.1752 C   0  0  0  0  0  0  0  0  0  0  0  0
  -17.8541   -6.5904   22.3930 C   0  0  0  0  0  0  0  0  0  0  0  0
  -17.7954   -7.9444   21.7011 C   0  0  0  0  0  0  0  0  0  0  0  0
  -18.2826   -7.8347   20.2653 C   0  0  0  0  0  0  0  0  0  0  0  0
  -18.2254   -9.1683   19.6417 N   0  0  0  0  0  0  0  0  0  0  0  0
  -18.4488   -9.0272   18.6565 H   0  0  0  0  0  0  0  0  0  0  0  0
  -19.1445  -10.4219   20.1352 S   0  0  0  0  0  0  0  0  0  0  0  0
  -20.2568   -9.8179   20.8046 O   0  0  0  0  0  0  0  0  0  0  0  0
  -19.3808  -11.2429   18.9816 O   0  0  0  0  0  0  0  0  0  0  0  0
  -18.1535  -11.3170   21.3194 C   0  0  0  0  0  0  0  0  0  0  0  0
  -18.4645  -12.7995   21.3568 C   0  0  0  0  0  0  0  0  0  0  0  0
 27 28  1  0
 24 30  1  0
 24 26  1  0
 41 42  2  0
 41 43  2  0
 41 44  1  0
 24 28  1  0
 28 29  1  0
 10 14  2  0
 16 12  1  0
 11 15  2  0
 30 31  1  0
  1  3  1  0
  1  4  1  0
  2 32  1  0
 25 26  2  0
 26 17  1  0
 41 39  1  0
 17 18  2  0
 17 22  1  0
 18 19  1  0
 19 20  2  0
 19 23  1  0
 20 21  1  0
 21 22  2  0
 16 22  1  0
 12 13  2  0
 12 15  1  0
 10 13  1  0
 11 14  1  0
  1 15  1  0
  3  5  1  0
  4  5  1  0
  5  6  1  0
  5  8  1  0
  6  7  1  0
  2  7  1  0
  8  9  1  0
  2  9  1  0
 32 33  1  0
 33 34  1  0
 33 36  1  0
 34 35  1  0
 35 38  1  0
 36 37  1  0
 37 38  1  0
 39 38  1  0
 44 45  1  0
 39 40  1  0
M  END
> <minimizedAffinity>
-8.58485

> <CNNscore>
0.6876454353

> <CNNaffinity>
7.5751838684

> <CNN_VS>
5.2090406418

> <CNNaffinity_variance>
0.2412942201

$$$$
7uj4


 45 49  0  0  0  0  0  0  0  0999 V2000
  -22.2653   -0.8390   22.9962 N   0  0  0  0  0  0  0  0  0  0  0  0
  -19.8367   -5.0707   23.1239 N   0  0  0  0  0  0  0  0  0  0  0  0
  -21.1763   -1.5971   22.4034 C   0  0  0  0  0  0  0  0  0  0  0  0
  -22.8170   -1.8299   23.9129 C   0  0  0  0  0  0  0  0  0  0  0  0
  -21.6091   -2.7350   23.4262 C   0  0  0  0  0  0  0  0  0  0  0  0
  -20.5435   -3.0770   24.4668 C   0  0  0  0  0  0  0  0  0  0  0  0
  -19.3889   -3.8197   23.8344 C   0  0  0  0  0  0  0  0  0  0  0  0
  -22.0589   -4.0285   22.7527 C   0  0  0  0  0  0  0  0  0  0  0  0
  -20.9102   -4.7763   22.1223 C   0  0  0  0  0  0  0  0  0  0  0  0
  -23.0198    3.1350   22.4916 N   0  0  0  0  0  0  0  0  0  0  0  0
  -23.5179    0.8560   22.0454 N   0  0  0  0  0  0  0  0  0  0  0  0
  -21.7841    1.4429   23.5185 C   0  0  0  0  0  0  0  0  0  0  0  0
  -22.0512    2.7722   23.3081 C   0  0  0  0  0  0  0  0  0  0  0  0
  -23.7543    2.1674   21.9312 C   0  0  0  0  0  0  0  0  0  0  0  0
  -22.5501    0.4819   22.8708 C   0  0  0  0  0  0  0  0  0  0  0  0
  -20.7818    1.1065   24.3649 O   0  0  0  0  0  0  0  0  0  0  0  0
  -21.0002    1.6657   26.6810 C   0  0  0  0  0  0  0  0  0  0  0  0
  -20.6023    2.4667   27.7527 C   0  0  0  0  0  0  0  0  0  0  0  0
  -19.6088    3.3917   27.5471 C   0  0  0  0  0  0  0  0  0  0  0  0
  -18.9830    3.5926   26.3394 C   0  0  0  0  0  0  0  0  0  0  0  0
  -19.3934    2.8179   25.2716 C   0  0  0  0  0  0  0  0  0  0  0  0
  -20.4144    1.9072   25.4358 C   0  0  0  0  0  0  0  0  0  0  0  0
  -19.2103    4.1668   28.5789 F   0  0  0  0  0  0  0  0  0  0  0  0
  -23.3647    0.7932   26.7131 N   0  0  0  0  0  0  0  0  0  0  0  0
  -21.6409   -0.5677   27.0305 O   0  0  0  0  0  0  0  0  0  0  0  0
  -22.0429    0.5688   26.8234 C   0  0  0  0  0  0  0  0  0  0  0  0
  -24.9965    2.2165   25.5778 C   0  0  0  0  0  0  0  0  0  0  0  0
  -23.9585    2.1356   26.6751 C   0  0  0  0  0  0  0  0  0  0  0  0
  -22.8926    3.1967   26.5773 C   0  0  0  0  0  0  0  0  0  0  0  0
  -24.3311   -0.3150   26.7164 C   0  0  0  0  0  0  0  0  0  0  0  0
  -24.8953   -0.6113   28.0742 C   0  0  0  0  0  0  0  0  0  0  0  0
  -18.6864   -5.7052   22.4045 C   0  0  0  0  0  0  0  0  0  0  0  0
  -18.9470   -7.1502   21.9776 C   0  0  0  0  0  0  0  0  0  0  0  0
  -17.7467   -7.7845   21.2599 C   0  0  0  0  0  0  0  0  0  0  0  0
  -17.9965   -9.2304   20.8654 C   0  0  0  0  0  0  0  0  0  0  0  0
  -19.3938   -8.0052   23.1614 C   0  0  0  0  0  0  0  0  0  0  0  0
  -19.6877   -9.4323   22.7224 C   0  0  0  0  0  0  0  0  0  0  0  0
  -18.4722  -10.0470   22.0474 C   0  0  0  0  0  0  0  0  0  0  0  0
  -18.8072  -11.4179   21.6243 N   0  0  0  0  0  0  0  0  0  0  0  0
  -19.8114  -11.5196   21.7715 H   0  0  0  0  0  0  0  0  0  0  0  0
  -18.1211  -12.7445   22.2796 S   0  0  0  0  0  0  0  0  0  0  0  0
  -16.8126  -12.8025   21.7008 O   0  0  0  0  0  0  0  0  0  0  0  0
  -18.2541  -12.6203   23.7034 O   0  0  0  0  0  0  0  0  0  0  0  0
  -19.0876  -14.1293   21.7021 C   0  0  0  0  0  0  0  0  0  0  0  0
  -18.7133  -14.5748   20.3030 C   0  0  0  0  0  0  0  0  0  0  0  0
 27 28  1  0
 24 30  1  0
 24 26  1  0
 41 42  2  0
 41 43  2  0
 41 44  1  0
 24 28  1  0
 28 29  1  0
 10 14  2  0
 16 12  1  0
 11 15  2  0
 30 31  1  0
  1  3  1  0
  1  4  1  0
  2 32  1  0
 25 26  2  0
 26 17  1  0
 41 39  1  0
 17 18  2  0
 17 22  1  0
 18 19  1  0
 19 20  2  0
 19 23  1  0
 20 21  1  0
 21 22  2  0
 16 22  1  0
 12 13  2  0
 12 15  1  0
 10 13  1  0
 11 14  1  0
  1 15  1  0
  3  5  1  0
  4  5  1  0
  5  6  1  0
  5  8  1  0
  6  7  1  0
  2  7  1  0
  8  9  1  0
  2  9  1  0
 32 33  1  0
 33 34  1  0
 33 36  1  0
 34 35  1  0
 35 38  1  0
 36 37  1  0
 37 38  1  0
 39 38  1  0
 44 45  1  0
 39 40  1  0
M  END
> <minimizedAffinity>
-8.16153

> <CNNscore>
0.6581614614

> <CNNaffinity>
7.3235034943

> <CNN_VS>
4.8200478554

> <CNNaffinity_variance>
0.1785272509

$$$$
7uj4


 45 49  0  0  0  0  0  0  0  0999 V2000
  -22.8000   -2.2738   21.8296 N   0  0  0  0  0  0  0  0  0  0  0  0
  -19.3741   -5.5359   23.0309 N   0  0  0  0  0  0  0  0  0  0  0  0
  -21.4917   -2.8000   21.4784 C   0  0  0  0  0  0  0  0  0  0  0  0
  -23.1693   -3.1714   22.9179 C   0  0  0  0  0  0  0  0  0  0  0  0
  -21.7201   -3.7806   22.7090 C   0  0  0  0  0  0  0  0  0  0  0  0
  -20.7233   -3.5907   23.8516 C   0  0  0  0  0  0  0  0  0  0  0  0
  -19.3517   -4.0922   23.4617 C   0  0  0  0  0  0  0  0  0  0  0  0
  -21.7372   -5.2572   22.3237 C   0  0  0  0  0  0  0  0  0  0  0  0
  -20.3703   -5.7647   21.9366 C   0  0  0  0  0  0  0  0  0  0  0  0
  -24.5155    1.1365   20.3999 N   0  0  0  0  0  0  0  0  0  0  0  0
  -24.3691   -1.2324   20.4880 N   0  0  0  0  0  0  0  0  0  0  0  0
  -22.9695    0.1101   21.8145 C   0  0  0  0  0  0  0  0  0  0  0  0
  -23.5542    1.2377   21.2956 C   0  0  0  0  0  0  0  0  0  0  0  0
  -24.9272   -0.0921   20.0673 C   0  0  0  0  0  0  0  0  0  0  0  0
  -23.4063   -1.1401   21.3949 C   0  0  0  0  0  0  0  0  0  0  0  0
  -21.9850    0.2516   22.7338 O   0  0  0  0  0  0  0  0  0  0  0  0
  -20.4904    2.0741   23.1448 C   0  0  0  0  0  0  0  0  0  0  0  0
  -19.2757    2.7015   22.8629 C   0  0  0  0  0  0  0  0  0  0  0  0
  -18.4139    2.0971   21.9815 C   0  0  0  0  0  0  0  0  0  0  0  0
  -18.6770    0.9091   21.3411 C   0  0  0  0  0  0  0  0  0  0  0  0
  -19.8896    0.2997   21.6000 C   0  0  0  0  0  0  0  0  0  0  0  0
  -20.7926    0.9001   22.4504 C   0  0  0  0  0  0  0  0  0  0  0  0
  -17.2324    2.6912   21.7073 F   0  0  0  0  0  0  0  0  0  0  0  0
  -21.1285    3.0107   25.3962 N   0  0  0  0  0  0  0  0  0  0  0  0
  -22.6462    2.7403   23.7999 O   0  0  0  0  0  0  0  0  0  0  0  0
  -21.4813    2.6283   24.1556 C   0  0  0  0  0  0  0  0  0  0  0  0
  -19.9429    1.6581   27.0520 C   0  0  0  0  0  0  0  0  0  0  0  0
  -19.8156    2.7268   25.9893 C   0  0  0  0  0  0  0  0  0  0  0  0
  -19.1584    3.9912   26.4802 C   0  0  0  0  0  0  0  0  0  0  0  0
  -22.0873    3.6719   26.2938 C   0  0  0  0  0  0  0  0  0  0  0  0
  -23.1283    2.7429   26.8443 C   0  0  0  0  0  0  0  0  0  0  0  0
  -18.0255   -5.9547   22.5316 C   0  0  0  0  0  0  0  0  0  0  0  0
  -17.9017   -7.4572   22.2758 C   0  0  0  0  0  0  0  0  0  0  0  0
  -18.7343   -8.2982   23.2544 C   0  0  0  0  0  0  0  0  0  0  0  0
  -18.6351   -9.7890   22.9779 C   0  0  0  0  0  0  0  0  0  0  0  0
  -18.2422   -7.8022   20.8277 C   0  0  0  0  0  0  0  0  0  0  0  0
  -18.0803   -9.2933   20.5705 C   0  0  0  0  0  0  0  0  0  0  0  0
  -18.9418  -10.0996   21.5288 C   0  0  0  0  0  0  0  0  0  0  0  0
  -18.7404  -11.5334   21.2561 N   0  0  0  0  0  0  0  0  0  0  0  0
  -19.6696  -11.9213   21.0934 H   0  0  0  0  0  0  0  0  0  0  0  0
  -18.0093  -12.5450   22.3058 S   0  0  0  0  0  0  0  0  0  0  0  0
  -16.6571  -12.6360   21.8436 O   0  0  0  0  0  0  0  0  0  0  0  0
  -18.2684  -12.0353   23.6225 O   0  0  0  0  0  0  0  0  0  0  0  0
  -18.8141  -14.1249   22.1017 C   0  0  0  0  0  0  0  0  0  0  0  0
  -20.2862  -14.0940   22.4596 C   0  0  0  0  0  0  0  0  0  0  0  0
 27 28  1  0
 24 30  1  0
 24 26  1  0
 41 42  2  0
 41 43  2  0
 41 44  1  0
 24 28  1  0
 28 29  1  0
 10 14  2  0
 16 12  1  0
 11 15  2  0
 30 31  1  0
  1  3  1  0
  1  4  1  0
  2 32  1  0
 25 26  2  0
 26 17  1  0
 41 39  1  0
 17 18  2  0
 17 22  1  0
 18 19  1  0
 19 20  2  0
 19 23  1  0
 20 21  1  0
 21 22  2  0
 16 22  1  0
 12 13  2  0
 12 15  1  0
 10 13  1  0
 11 14  1  0
  1 15  1  0
  3  5  1  0
  4  5  1  0
  5  6  1  0
  5  8  1  0
  6  7  1  0
  2  7  1  0
  8  9  1  0
  2  9  1  0
 32 33  1  0
 33 34  1  0
 33 36  1  0
 34 35  1  0
 35 38  1  0
 36 37  1  0
 37 38  1  0
 39 38  1  0
 44 45  1  0
 39 40  1  0
M  END
> <minimizedAffinity>
-8.48131

> <CNNscore>
0.5613272786

> <CNNaffinity>
7.2464461327

> <CNN_VS>
4.0676279068

> <CNNaffinity_variance>
0.5572149158

$$$$
7uj4


 45 49  0  0  0  0  0  0  0  0999 V2000
  -22.7997   -2.7982   21.1075 N   0  0  0  0  0  0  0  0  0  0  0  0
  -19.4069   -5.9985   22.5458 N   0  0  0  0  0  0  0  0  0  0  0  0
  -21.4394   -3.2601   20.8876 C   0  0  0  0  0  0  0  0  0  0  0  0
  -23.2558   -3.7635   22.1009 C   0  0  0  0  0  0  0  0  0  0  0  0
  -21.7688   -4.3107   22.0347 C   0  0  0  0  0  0  0  0  0  0  0  0
  -20.9191   -4.1463   23.2942 C   0  0  0  0  0  0  0  0  0  0  0  0
  -19.4926   -4.5792   23.0445 C   0  0  0  0  0  0  0  0  0  0  0  0
  -21.6818   -5.7649   21.5801 C   0  0  0  0  0  0  0  0  0  0  0  0
  -20.2599   -6.2042   21.3324 C   0  0  0  0  0  0  0  0  0  0  0  0
  -24.4788    0.6165   19.6456 N   0  0  0  0  0  0  0  0  0  0  0  0
  -24.2847   -1.7504   19.6780 N   0  0  0  0  0  0  0  0  0  0  0  0
  -23.0228   -0.4191   21.1464 C   0  0  0  0  0  0  0  0  0  0  0  0
  -23.5919    0.7110   20.6157 C   0  0  0  0  0  0  0  0  0  0  0  0
  -24.8351   -0.6100   19.2476 C   0  0  0  0  0  0  0  0  0  0  0  0
  -23.3969   -1.6651   20.6592 C   0  0  0  0  0  0  0  0  0  0  0  0
  -22.1156   -0.2845   22.1429 O   0  0  0  0  0  0  0  0  0  0  0  0
  -20.4434    1.1569   23.0654 C   0  0  0  0  0  0  0  0  0  0  0  0
  -19.2428    1.8476   22.8919 C   0  0  0  0  0  0  0  0  0  0  0  0
  -18.5741    1.7122   21.7005 C   0  0  0  0  0  0  0  0  0  0  0  0
  -19.0204    0.9440   20.6511 C   0  0  0  0  0  0  0  0  0  0  0  0
  -20.2211    0.2799   20.8120 C   0  0  0  0  0  0  0  0  0  0  0  0
  -20.9355    0.4256   21.9814 C   0  0  0  0  0  0  0  0  0  0  0  0
  -17.4074    2.3697   21.5246 F   0  0  0  0  0  0  0  0  0  0  0  0
  -22.0666    2.1839   24.6974 N   0  0  0  0  0  0  0  0  0  0  0  0
  -21.0773    0.2467   25.1366 O   0  0  0  0  0  0  0  0  0  0  0  0
  -21.2233    1.1883   24.3698 C   0  0  0  0  0  0  0  0  0  0  0  0
  -22.8931    3.2371   22.6517 C   0  0  0  0  0  0  0  0  0  0  0  0
  -22.1556    3.4479   23.9554 C   0  0  0  0  0  0  0  0  0  0  0  0
  -20.7947    4.0728   23.7850 C   0  0  0  0  0  0  0  0  0  0  0  0
  -22.9075    2.1082   25.9012 C   0  0  0  0  0  0  0  0  0  0  0  0
  -22.6261    3.1953   26.8956 C   0  0  0  0  0  0  0  0  0  0  0  0
  -17.9939   -6.3441   22.1888 C   0  0  0  0  0  0  0  0  0  0  0  0
  -17.7640   -7.8378   21.9563 C   0  0  0  0  0  0  0  0  0  0  0  0
  -18.5407   -8.7204   22.9442 C   0  0  0  0  0  0  0  0  0  0  0  0
  -18.3360  -10.2046   22.6907 C   0  0  0  0  0  0  0  0  0  0  0  0
  -18.0723   -8.2273   20.5122 C   0  0  0  0  0  0  0  0  0  0  0  0
  -17.8052   -9.7070   20.2783 C   0  0  0  0  0  0  0  0  0  0  0  0
  -18.6131  -10.5574   21.2453 C   0  0  0  0  0  0  0  0  0  0  0  0
  -18.3105  -11.9774   20.9952 N   0  0  0  0  0  0  0  0  0  0  0  0
  -18.4935  -12.1329   20.0038 H   0  0  0  0  0  0  0  0  0  0  0  0
  -19.0502  -13.1976   21.7848 S   0  0  0  0  0  0  0  0  0  0  0  0
  -18.9734  -14.3120   20.8889 O   0  0  0  0  0  0  0  0  0  0  0  0
  -18.4316  -13.2915   23.0767 O   0  0  0  0  0  0  0  0  0  0  0  0
  -20.7542  -12.6988   21.9671 C   0  0  0  0  0  0  0  0  0  0  0  0
  -21.2983  -12.9358   23.3613 C   0  0  0  0  0  0  0  0  0  0  0  0
 27 28  1  0
 24 30  1  0
 24 26  1  0
 41 42  2  0
 41 43  2  0
 41 44  1  0
 24 28  1  0
 28 29  1  0
 10 14  2  0
 16 12  1  0
 11 15  2  0
 30 31  1  0
  1  3  1  0
  1  4  1  0
  2 32  1  0
 25 26  2  0
 26 17  1  0
 41 39  1  0
 17 18  2  0
 17 22  1  0
 18 19  1  0
 19 20  2  0
 19 23  1  0
 20 21  1  0
 21 22  2  0
 16 22  1  0
 12 13  2  0
 12 15  1  0
 10 13  1  0
 11 14  1  0
  1 15  1  0
  3  5  1  0
  4  5  1  0
  5  6  1  0
  5  8  1  0
  6  7  1  0
  2  7  1  0
  8  9  1  0
  2  9  1  0
 32 33  1  0
 33 34  1  0
 33 36  1  0
 34 35  1  0
 35 38  1  0
 36 37  1  0
 37 38  1  0
 39 38  1  0
 44 45  1  0
 39 40  1  0
M  END
> <minimizedAffinity>
-7.90749

> <CNNscore>
0.4437731504

> <CNNaffinity>
7.0802330971

> <CNN_VS>
3.1420173645

> <CNNaffinity_variance>
0.5841116905

$$$$
7uj4


 45 49  0  0  0  0  0  0  0  0999 V2000
  -22.6907   -0.1548   24.9096 N   0  0  0  0  0  0  0  0  0  0  0  0
  -20.7948   -4.4218   23.4883 N   0  0  0  0  0  0  0  0  0  0  0  0
  -21.9361   -0.8251   23.8640 C   0  0  0  0  0  0  0  0  0  0  0  0
  -23.0121   -1.2825   25.7765 C   0  0  0  0  0  0  0  0  0  0  0  0
  -22.1263   -2.1221   24.7639 C   0  0  0  0  0  0  0  0  0  0  0  0
  -20.8209   -2.7005   25.3087 C   0  0  0  0  0  0  0  0  0  0  0  0
  -20.0160   -3.3506   24.2069 C   0  0  0  0  0  0  0  0  0  0  0  0
  -22.8993   -3.2420   24.0730 C   0  0  0  0  0  0  0  0  0  0  0  0
  -22.0998   -3.8973   22.9741 C   0  0  0  0  0  0  0  0  0  0  0  0
  -23.2777    3.8067   25.6703 N   0  0  0  0  0  0  0  0  0  0  0  0
  -21.9223    1.8580   25.7491 N   0  0  0  0  0  0  0  0  0  0  0  0
  -24.0499    1.8047   24.7536 C   0  0  0  0  0  0  0  0  0  0  0  0
  -24.2230    3.1342   25.0452 C   0  0  0  0  0  0  0  0  0  0  0  0
  -22.1400    3.1619   25.9520 C   0  0  0  0  0  0  0  0  0  0  0  0
  -22.8651    1.1754   25.1141 C   0  0  0  0  0  0  0  0  0  0  0  0
  -25.0421    1.1451   24.1095 O   0  0  0  0  0  0  0  0  0  0  0  0
  -25.8658    1.8537   21.9778 C   0  0  0  0  0  0  0  0  0  0  0  0
  -26.8613    2.5008   21.2438 C   0  0  0  0  0  0  0  0  0  0  0  0
  -27.9598    2.9833   21.9112 C   0  0  0  0  0  0  0  0  0  0  0  0
  -28.1395    2.8822   23.2706 C   0  0  0  0  0  0  0  0  0  0  0  0
  -27.1432    2.2642   24.0016 C   0  0  0  0  0  0  0  0  0  0  0  0
  -26.0105    1.8032   23.3665 C   0  0  0  0  0  0  0  0  0  0  0  0
  -28.9330    3.6042   21.2100 F   0  0  0  0  0  0  0  0  0  0  0  0
  -24.6806    0.0436   20.6848 N   0  0  0  0  0  0  0  0  0  0  0  0
  -23.5944    1.8507   21.3768 O   0  0  0  0  0  0  0  0  0  0  0  0
  -24.6451    1.2268   21.3239 C   0  0  0  0  0  0  0  0  0  0  0  0
  -25.4029   -2.1972   21.3439 C   0  0  0  0  0  0  0  0  0  0  0  0
  -25.8248   -0.8749   20.7427 C   0  0  0  0  0  0  0  0  0  0  0  0
  -26.4816   -1.0076   19.3927 C   0  0  0  0  0  0  0  0  0  0  0  0
  -23.5142   -0.4609   19.9452 C   0  0  0  0  0  0  0  0  0  0  0  0
  -23.3408    0.1750   18.5978 C   0  0  0  0  0  0  0  0  0  0  0  0
  -20.0113   -4.9488   22.3257 C   0  0  0  0  0  0  0  0  0  0  0  0
  -19.3001   -6.2722   22.6101 C   0  0  0  0  0  0  0  0  0  0  0  0
  -20.2626   -7.3800   23.0624 C   0  0  0  0  0  0  0  0  0  0  0  0
  -19.5580   -8.7027   23.3134 C   0  0  0  0  0  0  0  0  0  0  0  0
  -18.4686   -6.7228   21.4111 C   0  0  0  0  0  0  0  0  0  0  0  0
  -17.7339   -8.0204   21.7145 C   0  0  0  0  0  0  0  0  0  0  0  0
  -18.7133   -9.1082   22.1249 C   0  0  0  0  0  0  0  0  0  0  0  0
  -17.9587  -10.3373   22.4254 N   0  0  0  0  0  0  0  0  0  0  0  0
  -16.9751  -10.1025   22.2919 H   0  0  0  0  0  0  0  0  0  0  0  0
  -18.1957  -11.7433   21.6337 S   0  0  0  0  0  0  0  0  0  0  0  0
  -18.6583  -11.3575   20.3347 O   0  0  0  0  0  0  0  0  0  0  0  0
  -16.9790  -12.4959   21.7508 O   0  0  0  0  0  0  0  0  0  0  0  0
  -19.5084  -12.5797   22.5071 C   0  0  0  0  0  0  0  0  0  0  0  0
  -19.2975  -14.0768   22.6076 C   0  0  0  0  0  0  0  0  0  0  0  0
 27 28  1  0
 24 30  1  0
 24 26  1  0
 41 42  2  0
 41 43  2  0
 41 44  1  0
 24 28  1  0
 28 29  1  0
 10 14  2  0
 16 12  1  0
 11 15  2  0
 30 31  1  0
  1  3  1  0
  1  4  1  0
  2 32  1  0
 25 26  2  0
 26 17  1  0
 41 39  1  0
 17 18  2  0
 17 22  1  0
 18 19  1  0
 19 20  2  0
 19 23  1  0
 20 21  1  0
 21 22  2  0
 16 22  1  0
 12 13  2  0
 12 15  1  0
 10 13  1  0
 11 14  1  0
  1 15  1  0
  3  5  1  0
  4  5  1  0
  5  6  1  0
  5  8  1  0
  6  7  1  0
  2  7  1  0
  8  9  1  0
  2  9  1  0
 32 33  1  0
 33 34  1  0
 33 36  1  0
 34 35  1  0
 35 38  1  0
 36 37  1  0
 37 38  1  0
 39 38  1  0
 44 45  1  0
 39 40  1  0
M  END
> <minimizedAffinity>
-7.67832

> <CNNscore>
0.3960565329

> <CNNaffinity>
6.9349174500

> <CNN_VS>
2.7466194630

> <CNNaffinity_variance>
0.1669732332

$$$$
7uj4


 45 49  0  0  0  0  0  0  0  0999 V2000
  -23.1094   -1.5063   26.7945 N   0  0  0  0  0  0  0  0  0  0  0  0
  -20.8214   -4.4756   23.6687 N   0  0  0  0  0  0  0  0  0  0  0  0
  -22.9974   -1.8967   25.3991 C   0  0  0  0  0  0  0  0  0  0  0  0
  -22.2108   -2.4709   27.4180 C   0  0  0  0  0  0  0  0  0  0  0  0
  -21.9173   -2.9355   25.9305 C   0  0  0  0  0  0  0  0  0  0  0  0
  -20.5046   -2.6930   25.4006 C   0  0  0  0  0  0  0  0  0  0  0  0
  -20.4077   -3.0515   23.9354 C   0  0  0  0  0  0  0  0  0  0  0  0
  -22.2866   -4.3934   25.6709 C   0  0  0  0  0  0  0  0  0  0  0  0
  -22.1885   -4.7584   24.2104 C   0  0  0  0  0  0  0  0  0  0  0  0
  -25.0746    1.7363   28.2911 N   0  0  0  0  0  0  0  0  0  0  0  0
  -24.6113   -0.5931   28.2966 N   0  0  0  0  0  0  0  0  0  0  0  0
  -23.5031    0.8508   26.8109 C   0  0  0  0  0  0  0  0  0  0  0  0
  -24.1987    1.9168   27.3233 C   0  0  0  0  0  0  0  0  0  0  0  0
  -25.2117    0.4992   28.7815 C   0  0  0  0  0  0  0  0  0  0  0  0
  -23.7228   -0.4197   27.3278 C   0  0  0  0  0  0  0  0  0  0  0  0
  -22.6101    1.0734   25.8173 O   0  0  0  0  0  0  0  0  0  0  0  0
  -20.6931    2.1485   24.8717 C   0  0  0  0  0  0  0  0  0  0  0  0
  -19.6170    3.0216   25.0393 C   0  0  0  0  0  0  0  0  0  0  0  0
  -19.4755    3.6651   26.2438 C   0  0  0  0  0  0  0  0  0  0  0  0
  -20.3249    3.4942   27.3115 C   0  0  0  0  0  0  0  0  0  0  0  0
  -21.3759    2.6112   27.1555 C   0  0  0  0  0  0  0  0  0  0  0  0
  -21.5234    1.9208   25.9721 C   0  0  0  0  0  0  0  0  0  0  0  0
  -18.4424    4.5182   26.4145 F   0  0  0  0  0  0  0  0  0  0  0  0
  -21.5726    2.0419   22.5120 N   0  0  0  0  0  0  0  0  0  0  0  0
  -20.6165    0.2754   23.4553 O   0  0  0  0  0  0  0  0  0  0  0  0
  -20.9742    1.4407   23.5561 C   0  0  0  0  0  0  0  0  0  0  0  0
  -21.2050    4.4204   22.9419 C   0  0  0  0  0  0  0  0  0  0  0  0
  -22.2226    3.3558   22.5968 C   0  0  0  0  0  0  0  0  0  0  0  0
  -23.3996    3.3180   23.5374 C   0  0  0  0  0  0  0  0  0  0  0  0
  -21.6989    1.3676   21.2115 C   0  0  0  0  0  0  0  0  0  0  0  0
  -20.3907    1.1970   20.4977 C   0  0  0  0  0  0  0  0  0  0  0  0
  -20.8351   -4.7503   22.1964 C   0  0  0  0  0  0  0  0  0  0  0  0
  -20.0116   -5.9727   21.7892 C   0  0  0  0  0  0  0  0  0  0  0  0
  -18.6290   -6.0080   22.4566 C   0  0  0  0  0  0  0  0  0  0  0  0
  -17.8252   -7.2399   22.0755 C   0  0  0  0  0  0  0  0  0  0  0  0
  -20.7788   -7.2678   22.0461 C   0  0  0  0  0  0  0  0  0  0  0  0
  -19.9688   -8.4777   21.6037 C   0  0  0  0  0  0  0  0  0  0  0  0
  -18.6208   -8.5066   22.3058 C   0  0  0  0  0  0  0  0  0  0  0  0
  -17.8659   -9.6810   21.8353 N   0  0  0  0  0  0  0  0  0  0  0  0
  -17.5200   -9.4388   20.9068 H   0  0  0  0  0  0  0  0  0  0  0  0
  -18.5259  -11.1658   21.6949 S   0  0  0  0  0  0  0  0  0  0  0  0
  -17.4138  -12.0662   21.7472 O   0  0  0  0  0  0  0  0  0  0  0  0
  -19.5529  -11.2596   22.6935 O   0  0  0  0  0  0  0  0  0  0  0  0
  -19.2592  -11.2219   20.0687 C   0  0  0  0  0  0  0  0  0  0  0  0
  -20.0494  -12.4897   19.8151 C   0  0  0  0  0  0  0  0  0  0  0  0
 27 28  1  0
 24 30  1  0
 24 26  1  0
 41 42  2  0
 41 43  2  0
 41 44  1  0
 24 28  1  0
 28 29  1  0
 10 14  2  0
 16 12  1  0
 11 15  2  0
 30 31  1  0
  1  3  1  0
  1  4  1  0
  2 32  1  0
 25 26  2  0
 26 17  1  0
 41 39  1  0
 17 18  2  0
 17 22  1  0
 18 19  1  0
 19 20  2  0
 19 23  1  0
 20 21  1  0
 21 22  2  0
 16 22  1  0
 12 13  2  0
 12 15  1  0
 10 13  1  0
 11 14  1  0
  1 15  1  0
  3  5  1  0
  4  5  1  0
  5  6  1  0
  5  8  1  0
  6  7  1  0
  2  7  1  0
  8  9  1  0
  2  9  1  0
 32 33  1  0
 33 34  1  0
 33 36  1  0
 34 35  1  0
 35 38  1  0
 36 37  1  0
 37 38  1  0
 39 38  1  0
 44 45  1  0
 39 40  1  0
M  END
> <minimizedAffinity>
-8.09881

> <CNNscore>
0.3889043629

> <CNNaffinity>
7.4671611786

> <CNN_VS>
2.9040114880

> <CNNaffinity_variance>
0.2432234883

$$$$
7uj4


 45 49  0  0  0  0  0  0  0  0999 V2000
  -21.8049   -0.2923   22.8353 N   0  0  0  0  0  0  0  0  0  0  0  0
  -19.9158   -4.7866   23.0672 N   0  0  0  0  0  0  0  0  0  0  0  0
  -20.6825   -1.1263   22.4395 C   0  0  0  0  0  0  0  0  0  0  0  0
  -22.6635   -1.2811   23.4768 C   0  0  0  0  0  0  0  0  0  0  0  0
  -21.4677   -2.2840   23.1953 C   0  0  0  0  0  0  0  0  0  0  0  0
  -20.7358   -2.8408   24.4158 C   0  0  0  0  0  0  0  0  0  0  0  0
  -19.5388   -3.6644   23.9992 C   0  0  0  0  0  0  0  0  0  0  0  0
  -21.8601   -3.4511   22.2937 C   0  0  0  0  0  0  0  0  0  0  0  0
  -20.6698   -4.2792   21.8771 C   0  0  0  0  0  0  0  0  0  0  0  0
  -22.1573    3.7686   22.8727 N   0  0  0  0  0  0  0  0  0  0  0  0
  -20.8298    1.8009   22.9540 N   0  0  0  0  0  0  0  0  0  0  0  0
  -23.1599    1.6703   22.6812 C   0  0  0  0  0  0  0  0  0  0  0  0
  -23.2442    3.0393   22.7203 C   0  0  0  0  0  0  0  0  0  0  0  0
  -20.9836    3.1292   22.9296 C   0  0  0  0  0  0  0  0  0  0  0  0
  -21.9173    1.0595   22.7937 C   0  0  0  0  0  0  0  0  0  0  0  0
  -24.2973    0.9524   22.5224 O   0  0  0  0  0  0  0  0  0  0  0  0
  -26.2084    0.4699   21.1662 C   0  0  0  0  0  0  0  0  0  0  0  0
  -26.7306    0.2114   19.8977 C   0  0  0  0  0  0  0  0  0  0  0  0
  -25.8818    0.2453   18.8192 C   0  0  0  0  0  0  0  0  0  0  0  0
  -24.5347    0.5062   18.9086 C   0  0  0  0  0  0  0  0  0  0  0  0
  -24.0118    0.7373   20.1664 C   0  0  0  0  0  0  0  0  0  0  0  0
  -24.8302    0.6727   21.2732 C   0  0  0  0  0  0  0  0  0  0  0  0
  -26.3776    0.0046   17.5861 F   0  0  0  0  0  0  0  0  0  0  0  0
  -27.8976    1.5501   22.6935 N   0  0  0  0  0  0  0  0  0  0  0  0
  -27.0265   -0.4332   23.1751 O   0  0  0  0  0  0  0  0  0  0  0  0
  -27.0770    0.5219   22.4127 C   0  0  0  0  0  0  0  0  0  0  0  0
  -26.8569    3.7590   22.5720 C   0  0  0  0  0  0  0  0  0  0  0  0
  -27.8792    2.8244   21.9642 C   0  0  0  0  0  0  0  0  0  0  0  0
  -29.2618    3.4176   21.8752 C   0  0  0  0  0  0  0  0  0  0  0  0
  -28.8244    1.4989   23.8338 C   0  0  0  0  0  0  0  0  0  0  0  0
  -28.1886    1.8802   25.1377 C   0  0  0  0  0  0  0  0  0  0  0  0
  -18.6904   -5.4954   22.5777 C   0  0  0  0  0  0  0  0  0  0  0  0
  -18.9506   -6.9293   22.1148 C   0  0  0  0  0  0  0  0  0  0  0  0
  -17.7449   -7.5502   21.3943 C   0  0  0  0  0  0  0  0  0  0  0  0
  -17.9945   -8.9859   20.9639 C   0  0  0  0  0  0  0  0  0  0  0  0
  -19.4112   -7.8104   23.2739 C   0  0  0  0  0  0  0  0  0  0  0  0
  -19.7045   -9.2260   22.7989 C   0  0  0  0  0  0  0  0  0  0  0  0
  -18.4840   -9.8284   22.1219 C   0  0  0  0  0  0  0  0  0  0  0  0
  -18.8183  -11.1881   21.6638 N   0  0  0  0  0  0  0  0  0  0  0  0
  -19.8358  -11.2527   21.6955 H   0  0  0  0  0  0  0  0  0  0  0  0
  -18.2602  -12.5357   22.3934 S   0  0  0  0  0  0  0  0  0  0  0  0
  -17.0380  -12.8401   21.7122 O   0  0  0  0  0  0  0  0  0  0  0  0
  -18.2295  -12.2626   23.8023 O   0  0  0  0  0  0  0  0  0  0  0  0
  -19.4632  -13.8091   22.0521 C   0  0  0  0  0  0  0  0  0  0  0  0
  -19.7910  -13.9392   20.5784 C   0  0  0  0  0  0  0  0  0  0  0  0
 27 28  1  0
 24 30  1  0
 24 26  1  0
 41 42  2  0
 41 43  2  0
 41 44  1  0
 24 28  1  0
 28 29  1  0
 10 14  2  0
 16 12  1  0
 11 15  2  0
 30 31  1  0
  1  3  1  0
  1  4  1  0
  2 32  1  0
 25 26  2  0
 26 17  1  0
 41 39  1  0
 17 18  2  0
 17 22  1  0
 18 19  1  0
 19 20  2  0
 19 23  1  0
 20 21  1  0
 21 22  2  0
 16 22  1  0
 12 13  2  0
 12 15  1  0
 10 13  1  0
 11 14  1  0
  1 15  1  0
  3  5  1  0
  4  5  1  0
  5  6  1  0
  5  8  1  0
  6  7  1  0
  2  7  1  0
  8  9  1  0
  2  9  1  0
 32 33  1  0
 33 34  1  0
 33 36  1  0
 34 35  1  0
 35 38  1  0
 36 37  1  0
 37 38  1  0
 39 38  1  0
 44 45  1  0
 39 40  1  0
M  END
> <minimizedAffinity>
-8.32167

> <CNNscore>
0.3846581578

> <CNNaffinity>
6.9510669708

> <CNN_VS>
2.6737847328

> <CNNaffinity_variance>
0.3065007031

$$$$
7uj4


 45 49  0  0  0  0  0  0  0  0999 V2000
  -21.0501    0.0318   23.3511 N   0  0  0  0  0  0  0  0  0  0  0  0
  -21.0971   -4.6859   22.1008 N   0  0  0  0  0  0  0  0  0  0  0  0
  -20.5342   -0.9486   22.4105 C   0  0  0  0  0  0  0  0  0  0  0  0
  -21.9696   -0.7938   24.1252 C   0  0  0  0  0  0  0  0  0  0  0  0
  -21.4195   -1.9830   23.2318 C   0  0  0  0  0  0  0  0  0  0  0  0
  -20.6119   -3.0645   23.9483 C   0  0  0  0  0  0  0  0  0  0  0  0
  -20.0343   -4.0519   22.9603 C   0  0  0  0  0  0  0  0  0  0  0  0
  -22.5033   -2.6620   22.3990 C   0  0  0  0  0  0  0  0  0  0  0  0
  -21.9332   -3.6514   21.4130 C   0  0  0  0  0  0  0  0  0  0  0  0
  -19.6675    3.7973   24.0768 N   0  0  0  0  0  0  0  0  0  0  0  0
  -19.8025    1.8665   22.7002 N   0  0  0  0  0  0  0  0  0  0  0  0
  -20.9892    1.9867   24.7245 C   0  0  0  0  0  0  0  0  0  0  0  0
  -20.4873    3.2440   24.9476 C   0  0  0  0  0  0  0  0  0  0  0  0
  -19.3963    3.1142   22.9589 C   0  0  0  0  0  0  0  0  0  0  0  0
  -20.6337    1.3051   23.5674 C   0  0  0  0  0  0  0  0  0  0  0  0
  -21.8299    1.4494   25.6405 O   0  0  0  0  0  0  0  0  0  0  0  0
  -23.2927    1.7517   27.5096 C   0  0  0  0  0  0  0  0  0  0  0  0
  -23.5396    2.3669   28.7380 C   0  0  0  0  0  0  0  0  0  0  0  0
  -22.5730    3.1852   29.2681 C   0  0  0  0  0  0  0  0  0  0  0  0
  -21.3711    3.4524   28.6559 C   0  0  0  0  0  0  0  0  0  0  0  0
  -21.1359    2.8641   27.4281 C   0  0  0  0  0  0  0  0  0  0  0  0
  -22.1016    2.0680   26.8514 C   0  0  0  0  0  0  0  0  0  0  0  0
  -22.7978    3.7795   30.4600 F   0  0  0  0  0  0  0  0  0  0  0  0
  -25.3077    1.1698   26.1116 N   0  0  0  0  0  0  0  0  0  0  0  0
  -24.0772   -0.4163   27.0572 O   0  0  0  0  0  0  0  0  0  0  0  0
  -24.2700    0.7772   26.8724 C   0  0  0  0  0  0  0  0  0  0  0  0
  -26.8214    2.8586   27.0248 C   0  0  0  0  0  0  0  0  0  0  0  0
  -25.7482    2.5661   25.9998 C   0  0  0  0  0  0  0  0  0  0  0  0
  -26.1578    2.8933   24.5867 C   0  0  0  0  0  0  0  0  0  0  0  0
  -26.1451    0.1939   25.3987 C   0  0  0  0  0  0  0  0  0  0  0  0
  -27.2398   -0.3848   26.2451 C   0  0  0  0  0  0  0  0  0  0  0  0
  -20.4738   -5.5563   21.0534 C   0  0  0  0  0  0  0  0  0  0  0  0
  -19.6670   -6.7243   21.6218 C   0  0  0  0  0  0  0  0  0  0  0  0
  -20.5429   -7.9328   21.9830 C   0  0  0  0  0  0  0  0  0  0  0  0
  -19.7352   -9.1036   22.5174 C   0  0  0  0  0  0  0  0  0  0  0  0
  -18.5365   -7.1278   20.6778 C   0  0  0  0  0  0  0  0  0  0  0  0
  -17.7148   -8.2651   21.2668 C   0  0  0  0  0  0  0  0  0  0  0  0
  -18.6005   -9.4598   21.5814 C   0  0  0  0  0  0  0  0  0  0  0  0
  -17.7685  -10.5268   22.1642 N   0  0  0  0  0  0  0  0  0  0  0  0
  -16.8628  -10.4619   21.6996 H   0  0  0  0  0  0  0  0  0  0  0  0
  -18.1833  -12.1035   22.1202 S   0  0  0  0  0  0  0  0  0  0  0  0
  -16.9681  -12.7921   21.8052 O   0  0  0  0  0  0  0  0  0  0  0  0
  -18.8531  -12.3912   23.3568 O   0  0  0  0  0  0  0  0  0  0  0  0
  -19.3287  -12.2687   20.7614 C   0  0  0  0  0  0  0  0  0  0  0  0
  -19.4199  -13.6842   20.2281 C   0  0  0  0  0  0  0  0  0  0  0  0
 27 28  1  0
 24 30  1  0
 24 26  1  0
 41 42  2  0
 41 43  2  0
 41 44  1  0
 24 28  1  0
 28 29  1  0
 10 14  2  0
 16 12  1  0
 11 15  2  0
 30 31  1  0
  1  3  1  0
  1  4  1  0
  2 32  1  0
 25 26  2  0
 26 17  1  0
 41 39  1  0
 17 18  2  0
 17 22  1  0
 18 19  1  0
 19 20  2  0
 19 23  1  0
 20 21  1  0
 21 22  2  0
 16 22  1  0
 12 13  2  0
 12 15  1  0
 10 13  1  0
 11 14  1  0
  1 15  1  0
  3  5  1  0
  4  5  1  0
  5  6  1  0
  5  8  1  0
  6  7  1  0
  2  7  1  0
  8  9  1  0
  2  9  1  0
 32 33  1  0
 33 34  1  0
 33 36  1  0
 34 35  1  0
 35 38  1  0
 36 37  1  0
 37 38  1  0
 39 38  1  0
 44 45  1  0
 39 40  1  0
M  END
> <minimizedAffinity>
-7.84318

> <CNNscore>
0.3310884237

> <CNNaffinity>
6.9927463531

> <CNN_VS>
2.3152172565

> <CNNaffinity_variance>
0.2146117687

$$$$
7uj4


 45 49  0  0  0  0  0  0  0  0999 V2000
  -23.9941   -1.0261   24.7680 N   0  0  0  0  0  0  0  0  0  0  0  0
  -20.6375   -4.4780   23.9687 N   0  0  0  0  0  0  0  0  0  0  0  0
  -22.8307   -1.3846   23.9742 C   0  0  0  0  0  0  0  0  0  0  0  0
  -24.1899   -2.2536   25.5305 C   0  0  0  0  0  0  0  0  0  0  0  0
  -22.8652   -2.7390   24.8063 C   0  0  0  0  0  0  0  0  0  0  0  0
  -21.6390   -2.9591   25.6914 C   0  0  0  0  0  0  0  0  0  0  0  0
  -20.4204   -3.2803   24.8568 C   0  0  0  0  0  0  0  0  0  0  0  0
  -23.0700   -3.9836   23.9470 C   0  0  0  0  0  0  0  0  0  0  0  0
  -21.8557   -4.3114   23.1140 C   0  0  0  0  0  0  0  0  0  0  0  0
  -25.7514    2.6439   25.0125 N   0  0  0  0  0  0  0  0  0  0  0  0
  -25.8450    0.3304   24.4839 N   0  0  0  0  0  0  0  0  0  0  0  0
  -23.8904    1.2834   25.3738 C   0  0  0  0  0  0  0  0  0  0  0  0
  -24.5059    2.5088   25.4214 C   0  0  0  0  0  0  0  0  0  0  0  0
  -26.3954    1.5428   24.6096 C   0  0  0  0  0  0  0  0  0  0  0  0
  -24.5946    0.1837   24.9000 C   0  0  0  0  0  0  0  0  0  0  0  0
  -22.6099    1.1812   25.8030 O   0  0  0  0  0  0  0  0  0  0  0  0
  -22.2903    2.0311   28.0166 C   0  0  0  0  0  0  0  0  0  0  0  0
  -21.6832    2.9693   28.8531 C   0  0  0  0  0  0  0  0  0  0  0  0
  -20.8113    3.8744   28.3002 C   0  0  0  0  0  0  0  0  0  0  0  0
  -20.5041    3.9270   26.9610 C   0  0  0  0  0  0  0  0  0  0  0  0
  -21.1235    3.0151   26.1281 C   0  0  0  0  0  0  0  0  0  0  0  0
  -22.0327    2.1185   26.6462 C   0  0  0  0  0  0  0  0  0  0  0  0
  -20.2120    4.7817   29.1014 F   0  0  0  0  0  0  0  0  0  0  0  0
  -24.4561    1.1988   29.0013 N   0  0  0  0  0  0  0  0  0  0  0  0
  -22.8060   -0.2050   28.5209 O   0  0  0  0  0  0  0  0  0  0  0  0
  -23.2172    0.9467   28.5417 C   0  0  0  0  0  0  0  0  0  0  0  0
  -24.8647    2.8700   30.7384 C   0  0  0  0  0  0  0  0  0  0  0  0
  -24.9638    2.5515   29.2630 C   0  0  0  0  0  0  0  0  0  0  0  0
  -26.3503    2.7280   28.6991 C   0  0  0  0  0  0  0  0  0  0  0  0
  -25.3719    0.1084   29.3678 C   0  0  0  0  0  0  0  0  0  0  0  0
  -26.0020   -0.5651   28.1850 C   0  0  0  0  0  0  0  0  0  0  0  0
  -19.4583   -4.6833   23.0683 C   0  0  0  0  0  0  0  0  0  0  0  0
  -19.3904   -6.0800   22.4495 C   0  0  0  0  0  0  0  0  0  0  0  0
  -17.9540   -6.5215   22.1329 C   0  0  0  0  0  0  0  0  0  0  0  0
  -17.8866   -7.9223   21.5480 C   0  0  0  0  0  0  0  0  0  0  0  0
  -20.1008   -7.1091   23.3259 C   0  0  0  0  0  0  0  0  0  0  0  0
  -20.0622   -8.4891   22.6859 C   0  0  0  0  0  0  0  0  0  0  0  0
  -18.6282   -8.9155   22.4164 C   0  0  0  0  0  0  0  0  0  0  0  0
  -18.6398  -10.2453   21.7823 N   0  0  0  0  0  0  0  0  0  0  0  0
  -19.3056  -10.1831   21.0120 H   0  0  0  0  0  0  0  0  0  0  0  0
  -19.0131  -11.6128   22.5887 S   0  0  0  0  0  0  0  0  0  0  0  0
  -18.2797  -11.5251   23.8153 O   0  0  0  0  0  0  0  0  0  0  0  0
  -20.4458  -11.6916   22.6314 O   0  0  0  0  0  0  0  0  0  0  0  0
  -18.3646  -12.9524   21.6037 C   0  0  0  0  0  0  0  0  0  0  0  0
  -18.6267  -14.3171   22.2079 C   0  0  0  0  0  0  0  0  0  0  0  0
 27 28  1  0
 24 30  1  0
 24 26  1  0
 41 42  2  0
 41 43  2  0
 41 44  1  0
 24 28  1  0
 28 29  1  0
 10 14  2  0
 16 12  1  0
 11 15  2  0
 30 31  1  0
  1  3  1  0
  1  4  1  0
  2 32  1  0
 25 26  2  0
 26 17  1  0
 41 39  1  0
 17 18  2  0
 17 22  1  0
 18 19  1  0
 19 20  2  0
 19 23  1  0
 20 21  1  0
 21 22  2  0
 16 22  1  0
 12 13  2  0
 12 15  1  0
 10 13  1  0
 11 14  1  0
  1 15  1  0
  3  5  1  0
  4  5  1  0
  5  6  1  0
  5  8  1  0
  6  7  1  0
  2  7  1  0
  8  9  1  0
  2  9  1  0
 32 33  1  0
 33 34  1  0
 33 36  1  0
 34 35  1  0
 35 38  1  0
 36 37  1  0
 37 38  1  0
 39 38  1  0
 44 45  1  0
 39 40  1  0
M  END
> <minimizedAffinity>
-7.77188

> <CNNscore>
0.3288578987

> <CNNaffinity>
7.0757441521

> <CNN_VS>
2.3269143105

> <CNNaffinity_variance>
0.1022295132

$$$$
