7uj4
     RDKit          3D

 45 49  0  0  0  0  0  0  0  0999 V2000
  -23.1094   -1.5063   26.7945 N   0  0  0  0  0  0  0  0  0  0  0  0
  -20.8214   -4.4756   23.6687 N   0  0  0  0  0  0  0  0  0  0  0  0
  -22.9974   -1.8967   25.3991 C   0  0  0  0  0  0  0  0  0  0  0  0
  -22.2108   -2.4709   27.4180 C   0  0  0  0  0  0  0  0  0  0  0  0
  -21.9173   -2.9355   25.9305 C   0  0  0  0  0  0  0  0  0  0  0  0
  -20.5046   -2.6930   25.4006 C   0  0  0  0  0  0  0  0  0  0  0  0
  -20.4077   -3.0515   23.9354 C   0  0  0  0  0  0  0  0  0  0  0  0
  -22.2866   -4.3934   25.6709 C   0  0  0  0  0  0  0  0  0  0  0  0
  -22.1885   -4.7584   24.2104 C   0  0  0  0  0  0  0  0  0  0  0  0
  -25.0746    1.7363   28.2911 N   0  0  0  0  0  0  0  0  0  0  0  0
  -24.6113   -0.5931   28.2966 N   0  0  0  0  0  0  0  0  0  0  0  0
  -23.5031    0.8508   26.8109 C   0  0  0  0  0  0  0  0  0  0  0  0
  -24.1987    1.9168   27.3233 C   0  0  0  0  0  0  0  0  0  0  0  0
  -25.2117    0.4992   28.7815 C   0  0  0  0  0  0  0  0  0  0  0  0
  -23.7228   -0.4197   27.3278 C   0  0  0  0  0  0  0  0  0  0  0  0
  -22.6101    1.0734   25.8173 O   0  0  0  0  0  0  0  0  0  0  0  0
  -20.6931    2.1485   24.8717 C   0  0  0  0  0  0  0  0  0  0  0  0
  -19.6170    3.0216   25.0393 C   0  0  0  0  0  0  0  0  0  0  0  0
  -19.4755    3.6651   26.2438 C   0  0  0  0  0  0  0  0  0  0  0  0
  -20.3249    3.4942   27.3115 C   0  0  0  0  0  0  0  0  0  0  0  0
  -21.3759    2.6112   27.1555 C   0  0  0  0  0  0  0  0  0  0  0  0
  -21.5234    1.9208   25.9721 C   0  0  0  0  0  0  0  0  0  0  0  0
  -18.4424    4.5182   26.4145 F   0  0  0  0  0  0  0  0  0  0  0  0
  -21.5726    2.0419   22.5120 N   0  0  0  0  0  0  0  0  0  0  0  0
  -20.6165    0.2754   23.4553 O   0  0  0  0  0  0  0  0  0  0  0  0
  -20.9742    1.4407   23.5561 C   0  0  0  0  0  0  0  0  0  0  0  0
  -21.2050    4.4204   22.9419 C   0  0  0  0  0  0  0  0  0  0  0  0
  -22.2226    3.3558   22.5968 C   0  0  0  0  0  0  0  0  0  0  0  0
  -23.3996    3.3180   23.5374 C   0  0  0  0  0  0  0  0  0  0  0  0
  -21.6989    1.3676   21.2115 C   0  0  0  0  0  0  0  0  0  0  0  0
  -20.3907    1.1970   20.4977 C   0  0  0  0  0  0  0  0  0  0  0  0
  -20.8351   -4.7503   22.1964 C   0  0  0  0  0  0  0  0  0  0  0  0
  -20.0116   -5.9727   21.7892 C   0  0  1  0  0  0  0  0  0  0  0  0
  -18.6290   -6.0080   22.4566 C   0  0  0  0  0  0  0  0  0  0  0  0
  -17.8252   -7.2399   22.0755 C   0  0  0  0  0  0  0  0  0  0  0  0
  -20.7788   -7.2678   22.0461 C   0  0  0  0  0  0  0  0  0  0  0  0
  -19.9688   -8.4777   21.6037 C   0  0  0  0  0  0  0  0  0  0  0  0
  -18.6208   -8.5066   22.3058 C   0  0  1  0  0  0  0  0  0  0  0  0
  -17.8659   -9.6810   21.8353 N   0  0  0  0  0  0  0  0  0  0  0  0
  -17.5200   -9.4388   20.9068 H   0  0  0  0  0  0  0  0  0  0  0  0
  -18.5259  -11.1658   21.6949 S   0  0  0  0  0  0  0  0  0  0  0  0
  -17.4138  -12.0662   21.7472 O   0  0  0  0  0  0  0  0  0  0  0  0
  -19.5529  -11.2596   22.6935 O   0  0  0  0  0  0  0  0  0  0  0  0
  -19.2592  -11.2219   20.0687 C   0  0  0  0  0  0  0  0  0  0  0  0
  -20.0494  -12.4897   19.8151 C   0  0  0  0  0  0  0  0  0  0  0  0
 27 28  1  0
 24 30  1  0
 24 26  1  0
 41 42  2  0
 41 43  2  0
 41 44  1  0
 24 28  1  0
 28 29  1  0
 10 14  2  0
 16 12  1  0
 11 15  2  0
 30 31  1  0
  1  3  1  0
  1  4  1  0
  2 32  1  0
 25 26  2  0
 26 17  1  0
 41 39  1  0
 17 18  2  0
 17 22  1  0
 18 19  1  0
 19 20  2  0
 19 23  1  0
 20 21  1  0
 21 22  2  0
 16 22  1  0
 12 13  2  0
 12 15  1  0
 10 13  1  0
 11 14  1  0
  1 15  1  0
  3  5  1  0
  4  5  1  0
  5  6  1  0
  5  8  1  0
  6  7  1  0
  2  7  1  0
  8  9  1  0
  2  9  1  0
 33 32  1  1
 33 34  1  0
 33 36  1  0
 34 35  1  0
 35 38  1  0
 36 37  1  0
 37 38  1  0
 38 39  1  6
 44 45  1  0
 39 40  1  0
M  END
>  <minimizedAffinity>  (1) 
-8.09881

>  <CNNscore>  (1) 
0.3889043629

>  <CNNaffinity>  (1) 
7.4671611786

>  <CNN_VS>  (1) 
2.9040114880

>  <CNNaffinity_variance>  (1) 
0.2432234883

$$$$
