ziftomenib.sdf
     RDKit          3D

 51 56  0  0  0  0  0  0  0  0999 V2000
  -23.6671   -1.8927   19.0017 C   0  0  0  0  0  0  0  0  0  0  0  0
  -21.2515   -6.7253   16.1209 C   0  0  0  0  0  0  0  0  0  0  0  0
  -21.2968   -6.8341   17.4919 N   0  0  0  0  0  0  0  0  0  0  0  0
  -21.8206   -5.5187   15.7815 C   0  0  0  0  0  0  0  0  0  0  0  0
  -22.2165   -4.8525   16.9791 C   0  0  0  0  0  0  0  0  0  0  0  0
  -21.8784   -5.7021   18.0382 C   0  0  0  0  0  0  0  0  0  0  0  0
  -22.1330   -5.3591   19.3711 C   0  0  0  0  0  0  0  0  0  0  0  0
  -22.7271   -4.1239   19.6246 C   0  0  0  0  0  0  0  0  0  0  0  0
  -23.0712   -3.2345   18.5936 C   0  0  0  0  0  0  0  0  0  0  0  0
  -22.8252   -3.5918   17.2400 C   0  0  0  0  0  0  0  0  0  0  0  0
  -23.1912   -2.6520   16.1212 C   0  0  0  0  0  0  0  0  0  0  0  0
  -20.2372   -8.4344   14.4731 N   0  0  0  0  0  0  0  0  0  0  0  0
  -20.7018   -7.6962   15.2364 C   0  0  0  0  0  0  0  0  0  0  0  0
  -20.7299   -7.9443   18.2550 C   0  0  0  0  0  0  0  0  0  0  0  0
  -19.4670   -7.5755   19.0875 C   0  0  2  0  0  0  0  0  0  0  0  0
  -18.2250   -8.1859   18.4066 C   0  0  0  0  0  0  0  0  0  0  0  0
  -19.5163   -8.0359   20.5005 N   0  0  0  0  0  0  0  0  0  0  0  0
  -20.6256   -8.9904   20.7644 C   0  0  0  0  0  0  0  0  0  0  0  0
  -20.1969  -10.4530   21.0105 C   0  0  0  0  0  0  0  0  0  0  0  0
  -19.2474  -10.5456   22.1479 N   0  0  0  0  0  0  0  0  0  0  0  0
  -18.3841   -9.3537   22.3368 C   0  0  0  0  0  0  0  0  0  0  0  0
  -18.2390   -8.5598   21.0241 C   0  0  0  0  0  0  0  0  0  0  0  0
  -18.6235  -12.0626   22.5260 S   0  0  0  0  0  0  0  0  0  0  0  0
  -19.4023  -12.6045   23.6187 O   0  0  0  0  0  0  0  0  0  0  0  0
  -18.9954  -13.0170   21.0654 C   0  0  0  0  0  0  0  0  0  0  0  0
  -17.1842  -11.9386   22.6165 O   0  0  0  0  0  0  0  0  0  0  0  0
  -25.1287   -1.9411   19.1741 N   0  0  0  0  0  0  0  0  0  0  0  0
  -25.8624   -1.1712   18.1611 C   0  0  0  0  0  0  0  0  0  0  0  0
  -25.7859    0.3437   18.3548 C   0  0  0  0  0  0  0  0  0  0  0  0
  -26.2101    0.7490   19.7708 C   0  0  0  0  0  0  0  0  0  0  0  0
  -25.4263   -0.0617   20.8076 C   0  0  0  0  0  0  0  0  0  0  0  0
  -25.5452   -1.5572   20.5277 C   0  0  0  0  0  0  0  0  0  0  0  0
  -25.9522    2.1828   19.9341 N   0  0  0  0  0  0  0  0  0  0  0  0
  -25.4994    2.7046   19.2327 H   0  0  0  0  0  0  0  0  0  0  0  0
  -26.3743    2.7785   21.1234 C   0  0  0  0  0  0  0  0  0  0  0  0
  -25.4771    3.0690   22.1670 C   0  0  0  0  0  0  0  0  0  0  0  0
  -24.0608    2.8876   22.3344 C   0  0  0  0  0  0  0  0  0  0  0  0
  -23.6007    3.3324   23.5584 C   0  0  0  0  0  0  0  0  0  0  0  0
  -24.8765    3.9728   24.5054 S   0  0  0  0  0  0  0  0  0  0  0  0
  -26.0295    3.6542   23.2908 C   0  0  0  0  0  0  0  0  0  0  0  0
  -27.3182    3.9680   23.4774 N   0  0  0  0  0  0  0  0  0  0  0  0
  -28.0922    3.6691   22.4361 C   0  0  0  0  0  0  0  0  0  0  0  0
  -27.6747    3.1023   21.2945 N   0  0  0  0  0  0  0  0  0  0  0  0
  -29.4381    3.9856   22.5934 N   0  0  0  0  0  0  0  0  0  0  0  0
  -30.2314    2.9057   23.1381 C   0  0  0  0  0  0  0  0  0  0  0  0
  -29.8155    4.8633   22.3560 H   0  0  0  0  0  0  0  0  0  0  0  0
  -22.1968    3.3051   24.0952 C   0  0  0  0  0  0  0  0  0  0  0  0
  -21.1953    3.9887   23.1817 C   0  0  0  0  0  0  0  0  0  0  0  0
  -20.0092    4.1867   23.8007 F   0  0  0  0  0  0  0  0  0  0  0  0
  -20.9693    3.2825   22.0537 F   0  0  0  0  0  0  0  0  0  0  0  0
  -21.6595    5.2054   22.8092 F   0  0  0  0  0  0  0  0  0  0  0  0
 12 13  3  0
 13  2  1  0
  2  3  1  0
  3 14  1  0
 14 15  1  0
 15 17  1  0
 17 18  1  0
 18 19  1  0
 19 20  1  0
 20 23  1  0
 23 24  2  0
 23 25  1  0
 23 26  2  0
 20 21  1  0
 21 22  1  0
 17 22  1  0
 15 16  1  6
  2  4  2  0
  4  5  1  0
  5  6  2  0
  3  6  1  0
  6  7  1  0
  7  8  2  0
  8  9  1  0
  9  1  1  0
  1 27  1  0
 27 28  1  0
 28 29  1  0
 29 30  1  0
 30 33  1  0
 33 35  1  0
 35 36  2  0
 36 37  1  0
 37 38  2  0
 38 47  1  0
 47 48  1  0
 48 49  1  0
 48 50  1  0
 48 51  1  0
 38 39  1  0
 36 40  1  0
 39 40  1  0
 40 41  2  0
 41 42  1  0
 42 44  1  0
 44 45  1  0
 42 43  2  0
 35 43  1  0
 30 31  1  0
 31 32  1  0
 27 32  1  0
  9 10  2  0
  5 10  1  0
 10 11  1  0
 33 34  1  0
 44 46  1  0
M  END
>  <minimizedAffinity>  (1) 
-8.59995

>  <CNNscore>  (1) 
0.1764714271

>  <CNNaffinity>  (1) 
6.1172442436

>  <CNN_VS>  (1) 
1.0795187950

>  <CNNaffinity_variance>  (1) 
1.7820290327

$$$$
