ziftomenib.sdf
     RDKit          3D

 51 56  0  0  0  0  0  0  0  0999 V2000
  -22.3440   -5.1922   23.8842 C   0  0  0  0  0  0  0  0  0  0  0  0
  -18.6398   -7.9591   19.8703 C   0  0  0  0  0  0  0  0  0  0  0  0
  -18.6949   -8.5541   21.1098 N   0  0  0  0  0  0  0  0  0  0  0  0
  -19.5005   -6.8849   19.8871 C   0  0  0  0  0  0  0  0  0  0  0  0
  -20.0954   -6.8023   21.1810 C   0  0  0  0  0  0  0  0  0  0  0  0
  -19.5740   -7.8642   21.9280 C   0  0  0  0  0  0  0  0  0  0  0  0
  -19.9504   -8.0877   23.2575 C   0  0  0  0  0  0  0  0  0  0  0  0
  -20.8605   -7.2038   23.8349 C   0  0  0  0  0  0  0  0  0  0  0  0
  -21.3991   -6.1172   23.1268 C   0  0  0  0  0  0  0  0  0  0  0  0
  -21.0265   -5.9014   21.7722 C   0  0  0  0  0  0  0  0  0  0  0  0
  -21.5972   -4.7434   20.9961 C   0  0  0  0  0  0  0  0  0  0  0  0
  -17.2193   -8.7547   17.8668 N   0  0  0  0  0  0  0  0  0  0  0  0
  -17.8245   -8.3912   18.7859 C   0  0  0  0  0  0  0  0  0  0  0  0
  -17.8746   -9.6919   21.5209 C   0  0  0  0  0  0  0  0  0  0  0  0
  -18.6839  -10.9701   21.8889 C   0  0  2  0  0  0  0  0  0  0  0  0
  -18.1609  -11.5224   23.2305 C   0  0  0  0  0  0  0  0  0  0  0  0
  -18.6153  -12.0469   20.8656 N   0  0  0  0  0  0  0  0  0  0  0  0
  -18.5671  -13.4106   21.4566 C   0  0  0  0  0  0  0  0  0  0  0  0
  -19.8482  -14.2543   21.2811 C   0  0  0  0  0  0  0  0  0  0  0  0
  -20.1969  -14.4011   19.8456 N   0  0  0  0  0  0  0  0  0  0  0  0
  -19.7961  -13.2589   18.9877 C   0  0  0  0  0  0  0  0  0  0  0  0
  -19.6499  -11.9674   19.8154 C   0  0  0  0  0  0  0  0  0  0  0  0
  -21.6030  -15.2438   19.4633 S   0  0  0  0  0  0  0  0  0  0  0  0
  -22.5401  -15.0631   20.5511 O   0  0  0  0  0  0  0  0  0  0  0  0
  -22.2272  -14.3492   18.0516 C   0  0  0  0  0  0  0  0  0  0  0  0
  -21.2181  -16.5644   19.0129 O   0  0  0  0  0  0  0  0  0  0  0  0
  -21.6779   -4.4533   24.9698 N   0  0  0  0  0  0  0  0  0  0  0  0
  -22.6150   -3.8423   25.9216 C   0  0  0  0  0  0  0  0  0  0  0  0
  -23.3334   -2.6056   25.3806 C   0  0  0  0  0  0  0  0  0  0  0  0
  -22.3385   -1.5706   24.8435 C   0  0  0  0  0  0  0  0  0  0  0  0
  -21.3783   -2.2301   23.8488 C   0  0  0  0  0  0  0  0  0  0  0  0
  -20.7211   -3.4614   24.4660 C   0  0  0  0  0  0  0  0  0  0  0  0
  -23.0982   -0.4980   24.1944 N   0  0  0  0  0  0  0  0  0  0  0  0
  -24.0767   -0.4371   24.2841 H   0  0  0  0  0  0  0  0  0  0  0  0
  -22.3788    0.4332   23.4440 C   0  0  0  0  0  0  0  0  0  0  0  0
  -21.7493    1.5401   24.0413 C   0  0  0  0  0  0  0  0  0  0  0  0
  -21.6448    2.0076   25.3968 C   0  0  0  0  0  0  0  0  0  0  0  0
  -20.9099    3.1713   25.5112 C   0  0  0  0  0  0  0  0  0  0  0  0
  -20.3419    3.6993   23.9836 S   0  0  0  0  0  0  0  0  0  0  0  0
  -21.0750    2.3862   23.1809 C   0  0  0  0  0  0  0  0  0  0  0  0
  -20.9642    2.2535   21.8527 N   0  0  0  0  0  0  0  0  0  0  0  0
  -21.5799    1.1739   21.3750 C   0  0  0  0  0  0  0  0  0  0  0  0
  -22.2632    0.2812   22.1065 N   0  0  0  0  0  0  0  0  0  0  0  0
  -21.4819    1.0018   19.9977 N   0  0  0  0  0  0  0  0  0  0  0  0
  -21.7190   -0.3566   19.5613 C   0  0  0  0  0  0  0  0  0  0  0  0
  -21.2707    1.7367   19.3776 H   0  0  0  0  0  0  0  0  0  0  0  0
  -20.5912    3.9571   26.7525 C   0  0  0  0  0  0  0  0  0  0  0  0
  -19.2034    3.6731   27.2986 C   0  0  0  0  0  0  0  0  0  0  0  0
  -19.1054    3.9996   28.6074 F   0  0  0  0  0  0  0  0  0  0  0  0
  -18.8571    2.3756   27.1610 F   0  0  0  0  0  0  0  0  0  0  0  0
  -18.2814    4.4090   26.6332 F   0  0  0  0  0  0  0  0  0  0  0  0
 12 13  3  0
 13  2  1  0
  2  3  1  0
  3 14  1  0
 14 15  1  0
 15 17  1  0
 17 18  1  0
 18 19  1  0
 19 20  1  0
 20 23  1  0
 23 24  2  0
 23 25  1  0
 23 26  2  0
 20 21  1  0
 21 22  1  0
 17 22  1  0
 15 16  1  1
  2  4  2  0
  4  5  1  0
  5  6  2  0
  3  6  1  0
  6  7  1  0
  7  8  2  0
  8  9  1  0
  9  1  1  0
  1 27  1  0
 27 28  1  0
 28 29  1  0
 29 30  1  0
 30 33  1  0
 33 35  1  0
 35 36  2  0
 36 37  1  0
 37 38  2  0
 38 47  1  0
 47 48  1  0
 48 49  1  0
 48 50  1  0
 48 51  1  0
 38 39  1  0
 36 40  1  0
 39 40  1  0
 40 41  2  0
 41 42  1  0
 42 44  1  0
 44 45  1  0
 42 43  2  0
 35 43  1  0
 30 31  1  0
 31 32  1  0
 27 32  1  0
  9 10  2  0
  5 10  1  0
 10 11  1  0
 33 34  1  0
 44 46  1  0
M  END
>  <minimizedAffinity>  (1) 
-8.37510

>  <CNNscore>  (1) 
0.2703231871

>  <CNNaffinity>  (1) 
6.9849228859

>  <CNN_VS>  (1) 
1.8881865740

>  <CNNaffinity_variance>  (1) 
0.8522972465

$$$$
