ziftomenib.sdf
     RDKit          3D

 51 56  0  0  0  0  0  0  0  0999 V2000
  -22.0598   -4.5108   23.9101 C   0  0  0  0  0  0  0  0  0  0  0  0
  -18.7247   -7.8497   20.0091 C   0  0  0  0  0  0  0  0  0  0  0  0
  -18.8417   -8.3837   21.2719 N   0  0  0  0  0  0  0  0  0  0  0  0
  -19.4546   -6.6828   19.9829 C   0  0  0  0  0  0  0  0  0  0  0  0
  -20.0286   -6.4794   21.2728 C   0  0  0  0  0  0  0  0  0  0  0  0
  -19.6300   -7.5638   22.0621 C   0  0  0  0  0  0  0  0  0  0  0  0
  -20.0225   -7.6881   23.3998 C   0  0  0  0  0  0  0  0  0  0  0  0
  -20.8204   -6.6817   23.9416 C   0  0  0  0  0  0  0  0  0  0  0  0
  -21.2331   -5.5693   23.1902 C   0  0  0  0  0  0  0  0  0  0  0  0
  -20.8454   -5.4532   21.8276 C   0  0  0  0  0  0  0  0  0  0  0  0
  -21.2820   -4.2689   21.0054 C   0  0  0  0  0  0  0  0  0  0  0  0
  -17.3687   -8.9419   18.1030 N   0  0  0  0  0  0  0  0  0  0  0  0
  -17.9711   -8.4171   18.9426 C   0  0  0  0  0  0  0  0  0  0  0  0
  -18.1569   -9.5917   21.7283 C   0  0  0  0  0  0  0  0  0  0  0  0
  -19.0565  -10.8614   21.7808 C   0  0  2  0  0  0  0  0  0  0  0  0
  -18.7691  -11.6223   23.0912 C   0  0  0  0  0  0  0  0  0  0  0  0
  -18.8647  -11.7883   20.6340 N   0  0  0  0  0  0  0  0  0  0  0  0
  -18.7236  -13.2091   21.0499 C   0  0  0  0  0  0  0  0  0  0  0  0
  -19.9238  -14.1201   20.7136 C   0  0  0  0  0  0  0  0  0  0  0  0
  -20.2109  -14.1070   19.2572 N   0  0  0  0  0  0  0  0  0  0  0  0
  -19.8776  -12.8358   18.5684 C   0  0  0  0  0  0  0  0  0  0  0  0
  -19.8667  -11.6546   19.5578 C   0  0  0  0  0  0  0  0  0  0  0  0
  -21.5288  -15.0001   18.7105 S   0  0  0  0  0  0  0  0  0  0  0  0
  -22.5643  -14.0696   18.3155 O   0  0  0  0  0  0  0  0  0  0  0  0
  -20.8960  -15.7716   17.2315 C   0  0  0  0  0  0  0  0  0  0  0  0
  -21.7857  -16.0460   19.6775 O   0  0  0  0  0  0  0  0  0  0  0  0
  -21.5815   -4.2381   25.2758 N   0  0  0  0  0  0  0  0  0  0  0  0
  -22.6360   -4.3322   26.2939 C   0  0  0  0  0  0  0  0  0  0  0  0
  -23.6120   -3.1551   26.2894 C   0  0  0  0  0  0  0  0  0  0  0  0
  -22.8733   -1.8152   26.3815 C   0  0  0  0  0  0  0  0  0  0  0  0
  -21.7852   -1.7388   25.3060 C   0  0  0  0  0  0  0  0  0  0  0  0
  -20.8704   -2.9584   25.3741 C   0  0  0  0  0  0  0  0  0  0  0  0
  -23.8522   -0.7387   26.2032 N   0  0  0  0  0  0  0  0  0  0  0  0
  -24.5855   -0.8164   25.5509 H   0  0  0  0  0  0  0  0  0  0  0  0
  -23.7030    0.4008   26.9950 C   0  0  0  0  0  0  0  0  0  0  0  0
  -22.9615    1.5143   26.5606 C   0  0  0  0  0  0  0  0  0  0  0  0
  -22.2331    1.8106   25.3571 C   0  0  0  0  0  0  0  0  0  0  0  0
  -21.6456    3.0604   25.3757 C   0  0  0  0  0  0  0  0  0  0  0  0
  -21.9752    3.8793   26.8439 S   0  0  0  0  0  0  0  0  0  0  0  0
  -22.8903    2.5732   27.4462 C   0  0  0  0  0  0  0  0  0  0  0  0
  -23.4534    2.6398   28.6598 N   0  0  0  0  0  0  0  0  0  0  0  0
  -24.1443    1.5488   28.9837 C   0  0  0  0  0  0  0  0  0  0  0  0
  -24.2868    0.4612   28.2119 N   0  0  0  0  0  0  0  0  0  0  0  0
  -24.7471    1.5848   30.2374 N   0  0  0  0  0  0  0  0  0  0  0  0
  -24.5765    2.8426   30.9307 C   0  0  0  0  0  0  0  0  0  0  0  0
  -25.2437    0.8243   30.6173 H   0  0  0  0  0  0  0  0  0  0  0  0
  -20.8071    3.7148   24.3133 C   0  0  0  0  0  0  0  0  0  0  0  0
  -21.6260    4.2499   23.1524 C   0  0  0  0  0  0  0  0  0  0  0  0
  -21.0484    5.3377   22.5935 F   0  0  0  0  0  0  0  0  0  0  0  0
  -21.8054    3.3247   22.1859 F   0  0  0  0  0  0  0  0  0  0  0  0
  -22.8538    4.6263   23.5828 F   0  0  0  0  0  0  0  0  0  0  0  0
 12 13  3  0
 13  2  1  0
  2  3  1  0
  3 14  1  0
 14 15  1  0
 15 17  1  0
 17 18  1  0
 18 19  1  0
 19 20  1  0
 20 23  1  0
 23 24  2  0
 23 25  1  0
 23 26  2  0
 20 21  1  0
 21 22  1  0
 17 22  1  0
 15 16  1  1
  2  4  2  0
  4  5  1  0
  5  6  2  0
  3  6  1  0
  6  7  1  0
  7  8  2  0
  8  9  1  0
  9  1  1  0
  1 27  1  0
 27 28  1  0
 28 29  1  0
 29 30  1  0
 30 33  1  0
 33 35  1  0
 35 36  2  0
 36 37  1  0
 37 38  2  0
 38 47  1  0
 47 48  1  0
 48 49  1  0
 48 50  1  0
 48 51  1  0
 38 39  1  0
 36 40  1  0
 39 40  1  0
 40 41  2  0
 41 42  1  0
 42 44  1  0
 44 45  1  0
 42 43  2  0
 35 43  1  0
 30 31  1  0
 31 32  1  0
 27 32  1  0
  9 10  2  0
  5 10  1  0
 10 11  1  0
 33 34  1  0
 44 46  1  0
M  END
>  <minimizedAffinity>  (1) 
-8.41226

>  <CNNscore>  (1) 
0.1852578819

>  <CNNaffinity>  (1) 
7.0490512848

>  <CNN_VS>  (1) 
1.3058923483

>  <CNNaffinity_variance>  (1) 
0.3930631876

$$$$
