7uj4
     RDKit          3D

 45 49  0  0  0  0  0  0  0  0999 V2000
  -22.7997   -2.7982   21.1075 N   0  0  0  0  0  0  0  0  0  0  0  0
  -19.4069   -5.9985   22.5458 N   0  0  0  0  0  0  0  0  0  0  0  0
  -21.4394   -3.2601   20.8876 C   0  0  0  0  0  0  0  0  0  0  0  0
  -23.2558   -3.7635   22.1009 C   0  0  0  0  0  0  0  0  0  0  0  0
  -21.7688   -4.3107   22.0347 C   0  0  0  0  0  0  0  0  0  0  0  0
  -20.9191   -4.1463   23.2942 C   0  0  0  0  0  0  0  0  0  0  0  0
  -19.4926   -4.5792   23.0445 C   0  0  0  0  0  0  0  0  0  0  0  0
  -21.6818   -5.7649   21.5801 C   0  0  0  0  0  0  0  0  0  0  0  0
  -20.2599   -6.2042   21.3324 C   0  0  0  0  0  0  0  0  0  0  0  0
  -24.4788    0.6165   19.6456 N   0  0  0  0  0  0  0  0  0  0  0  0
  -24.2847   -1.7504   19.6780 N   0  0  0  0  0  0  0  0  0  0  0  0
  -23.0228   -0.4191   21.1464 C   0  0  0  0  0  0  0  0  0  0  0  0
  -23.5919    0.7110   20.6157 C   0  0  0  0  0  0  0  0  0  0  0  0
  -24.8351   -0.6100   19.2476 C   0  0  0  0  0  0  0  0  0  0  0  0
  -23.3969   -1.6651   20.6592 C   0  0  0  0  0  0  0  0  0  0  0  0
  -22.1156   -0.2845   22.1429 O   0  0  0  0  0  0  0  0  0  0  0  0
  -20.4434    1.1569   23.0654 C   0  0  0  0  0  0  0  0  0  0  0  0
  -19.2428    1.8476   22.8919 C   0  0  0  0  0  0  0  0  0  0  0  0
  -18.5741    1.7122   21.7005 C   0  0  0  0  0  0  0  0  0  0  0  0
  -19.0204    0.9440   20.6511 C   0  0  0  0  0  0  0  0  0  0  0  0
  -20.2211    0.2799   20.8120 C   0  0  0  0  0  0  0  0  0  0  0  0
  -20.9355    0.4256   21.9814 C   0  0  0  0  0  0  0  0  0  0  0  0
  -17.4074    2.3697   21.5246 F   0  0  0  0  0  0  0  0  0  0  0  0
  -22.0666    2.1839   24.6974 N   0  0  0  0  0  0  0  0  0  0  0  0
  -21.0773    0.2467   25.1366 O   0  0  0  0  0  0  0  0  0  0  0  0
  -21.2233    1.1883   24.3698 C   0  0  0  0  0  0  0  0  0  0  0  0
  -22.8931    3.2371   22.6517 C   0  0  0  0  0  0  0  0  0  0  0  0
  -22.1556    3.4479   23.9554 C   0  0  0  0  0  0  0  0  0  0  0  0
  -20.7947    4.0728   23.7850 C   0  0  0  0  0  0  0  0  0  0  0  0
  -22.9075    2.1082   25.9012 C   0  0  0  0  0  0  0  0  0  0  0  0
  -22.6261    3.1953   26.8956 C   0  0  0  0  0  0  0  0  0  0  0  0
  -17.9939   -6.3441   22.1888 C   0  0  0  0  0  0  0  0  0  0  0  0
  -17.7640   -7.8378   21.9563 C   0  0  1  0  0  0  0  0  0  0  0  0
  -18.5407   -8.7204   22.9442 C   0  0  0  0  0  0  0  0  0  0  0  0
  -18.3360  -10.2046   22.6907 C   0  0  0  0  0  0  0  0  0  0  0  0
  -18.0723   -8.2273   20.5122 C   0  0  0  0  0  0  0  0  0  0  0  0
  -17.8052   -9.7070   20.2783 C   0  0  0  0  0  0  0  0  0  0  0  0
  -18.6131  -10.5574   21.2453 C   0  0  1  0  0  0  0  0  0  0  0  0
  -18.3105  -11.9774   20.9952 N   0  0  0  0  0  0  0  0  0  0  0  0
  -18.4935  -12.1329   20.0038 H   0  0  0  0  0  0  0  0  0  0  0  0
  -19.0502  -13.1976   21.7848 S   0  0  0  0  0  0  0  0  0  0  0  0
  -18.9734  -14.3120   20.8889 O   0  0  0  0  0  0  0  0  0  0  0  0
  -18.4316  -13.2915   23.0767 O   0  0  0  0  0  0  0  0  0  0  0  0
  -20.7542  -12.6988   21.9671 C   0  0  0  0  0  0  0  0  0  0  0  0
  -21.2983  -12.9358   23.3613 C   0  0  0  0  0  0  0  0  0  0  0  0
 27 28  1  0
 24 30  1  0
 24 26  1  0
 41 42  2  0
 41 43  2  0
 41 44  1  0
 24 28  1  0
 28 29  1  0
 10 14  2  0
 16 12  1  0
 11 15  2  0
 30 31  1  0
  1  3  1  0
  1  4  1  0
  2 32  1  0
 25 26  2  0
 26 17  1  0
 41 39  1  0
 17 18  2  0
 17 22  1  0
 18 19  1  0
 19 20  2  0
 19 23  1  0
 20 21  1  0
 21 22  2  0
 16 22  1  0
 12 13  2  0
 12 15  1  0
 10 13  1  0
 11 14  1  0
  1 15  1  0
  3  5  1  0
  4  5  1  0
  5  6  1  0
  5  8  1  0
  6  7  1  0
  2  7  1  0
  8  9  1  0
  2  9  1  0
 33 32  1  6
 33 34  1  0
 33 36  1  0
 34 35  1  0
 35 38  1  0
 36 37  1  0
 37 38  1  0
 38 39  1  1
 44 45  1  0
 39 40  1  0
M  END
>  <minimizedAffinity>  (1) 
-7.90749

>  <CNNscore>  (1) 
0.4437731504

>  <CNNaffinity>  (1) 
7.0802330971

>  <CNN_VS>  (1) 
3.1420173645

>  <CNNaffinity_variance>  (1) 
0.5841116905

$$$$
