ziftomenib.sdf
     RDKit          3D

 51 56  0  0  0  0  0  0  0  0999 V2000
  -23.8117   -0.2097   21.3022 C   0  0  0  0  0  0  0  0  0  0  0  0
  -28.9102    2.8269   22.8098 C   0  0  0  0  0  0  0  0  0  0  0  0
  -28.6004    1.7725   23.6378 N   0  0  0  0  0  0  0  0  0  0  0  0
  -27.9173    2.9144   21.8603 C   0  0  0  0  0  0  0  0  0  0  0  0
  -26.9717    1.8731   22.0975 C   0  0  0  0  0  0  0  0  0  0  0  0
  -27.4235    1.1727   23.2214 C   0  0  0  0  0  0  0  0  0  0  0  0
  -26.7240    0.0769   23.7400 C   0  0  0  0  0  0  0  0  0  0  0  0
  -25.5550   -0.3170   23.0909 C   0  0  0  0  0  0  0  0  0  0  0  0
  -25.0718    0.3485   21.9525 C   0  0  0  0  0  0  0  0  0  0  0  0
  -25.7762    1.4702   21.4368 C   0  0  0  0  0  0  0  0  0  0  0  0
  -25.2704    2.1985   20.2191 C   0  0  0  0  0  0  0  0  0  0  0  0
  -30.9582    4.3862   23.0080 N   0  0  0  0  0  0  0  0  0  0  0  0
  -30.0610    3.6566   22.9300 C   0  0  0  0  0  0  0  0  0  0  0  0
  -29.4430    1.3059   24.7372 C   0  0  0  0  0  0  0  0  0  0  0  0
  -28.9795    1.7744   26.1478 C   0  0  2  0  0  0  0  0  0  0  0  0
  -27.6774    2.5875   26.0004 C   0  0  0  0  0  0  0  0  0  0  0  0
  -28.7474    0.6643   27.1096 N   0  0  0  0  0  0  0  0  0  0  0  0
  -27.3997    0.7082   27.7366 C   0  0  0  0  0  0  0  0  0  0  0  0
  -27.3757    1.1049   29.2284 C   0  0  0  0  0  0  0  0  0  0  0  0
  -28.2155    0.1862   30.0375 N   0  0  0  0  0  0  0  0  0  0  0  0
  -29.3804   -0.3872   29.3195 C   0  0  0  0  0  0  0  0  0  0  0  0
  -29.7974    0.5064   28.1354 C   0  0  0  0  0  0  0  0  0  0  0  0
  -28.3573    0.5010   31.6850 S   0  0  0  0  0  0  0  0  0  0  0  0
  -29.6837    1.0275   31.9251 O   0  0  0  0  0  0  0  0  0  0  0  0
  -28.2790   -1.1290   32.4060 C   0  0  0  0  0  0  0  0  0  0  0  0
  -27.1741    1.2237   32.1004 O   0  0  0  0  0  0  0  0  0  0  0  0
  -23.9024   -0.2742   19.8339 N   0  0  0  0  0  0  0  0  0  0  0  0
  -24.2970   -1.5962   19.3303 C   0  0  0  0  0  0  0  0  0  0  0  0
  -23.1906   -2.6487   19.4116 C   0  0  0  0  0  0  0  0  0  0  0  0
  -21.9041   -2.1616   18.7357 C   0  0  0  0  0  0  0  0  0  0  0  0
  -21.5101   -0.7861   19.2827 C   0  0  0  0  0  0  0  0  0  0  0  0
  -22.6762    0.1926   19.1770 C   0  0  0  0  0  0  0  0  0  0  0  0
  -20.8479   -3.1437   18.9983 N   0  0  0  0  0  0  0  0  0  0  0  0
  -20.0234   -2.8937   19.4748 H   0  0  0  0  0  0  0  0  0  0  0  0
  -21.0578   -4.4471   18.5460 C   0  0  0  0  0  0  0  0  0  0  0  0
  -20.6615   -5.5668   19.2992 C   0  0  0  0  0  0  0  0  0  0  0  0
  -20.0196   -5.7246   20.5759 C   0  0  0  0  0  0  0  0  0  0  0  0
  -19.8221   -7.0473   20.9209 C   0  0  0  0  0  0  0  0  0  0  0  0
  -20.4143   -8.1005   19.7064 S   0  0  0  0  0  0  0  0  0  0  0  0
  -20.9250   -6.7990   18.7310 C   0  0  0  0  0  0  0  0  0  0  0  0
  -21.5147   -7.0251   17.5497 N   0  0  0  0  0  0  0  0  0  0  0  0
  -21.8663   -5.9108   16.9114 C   0  0  0  0  0  0  0  0  0  0  0  0
  -21.6656   -4.6623   17.3587 N   0  0  0  0  0  0  0  0  0  0  0  0
  -22.4862   -6.1080   15.6813 N   0  0  0  0  0  0  0  0  0  0  0  0
  -23.6725   -6.9323   15.7515 C   0  0  0  0  0  0  0  0  0  0  0  0
  -22.1484   -5.7222   14.8409 H   0  0  0  0  0  0  0  0  0  0  0  0
  -19.1830   -7.6039   22.1625 C   0  0  0  0  0  0  0  0  0  0  0  0
  -17.7155   -7.9455   21.9764 C   0  0  0  0  0  0  0  0  0  0  0  0
  -16.9145   -7.0931   22.6555 F   0  0  0  0  0  0  0  0  0  0  0  0
  -17.4297   -9.2023   22.3776 F   0  0  0  0  0  0  0  0  0  0  0  0
  -17.3782   -7.8536   20.6678 F   0  0  0  0  0  0  0  0  0  0  0  0
 12 13  3  0
 13  2  1  0
  2  3  1  0
  3 14  1  0
 14 15  1  0
 15 17  1  0
 17 18  1  0
 18 19  1  0
 19 20  1  0
 20 23  1  0
 23 24  2  0
 23 25  1  0
 23 26  2  0
 20 21  1  0
 21 22  1  0
 17 22  1  0
 15 16  1  6
  2  4  2  0
  4  5  1  0
  5  6  2  0
  3  6  1  0
  6  7  1  0
  7  8  2  0
  8  9  1  0
  9  1  1  0
  1 27  1  0
 27 28  1  0
 28 29  1  0
 29 30  1  0
 30 33  1  0
 33 35  1  0
 35 36  2  0
 36 37  1  0
 37 38  2  0
 38 47  1  0
 47 48  1  0
 48 49  1  0
 48 50  1  0
 48 51  1  0
 38 39  1  0
 36 40  1  0
 39 40  1  0
 40 41  2  0
 41 42  1  0
 42 44  1  0
 44 45  1  0
 42 43  2  0
 35 43  1  0
 30 31  1  0
 31 32  1  0
 27 32  1  0
  9 10  2  0
  5 10  1  0
 10 11  1  0
 33 34  1  0
 44 46  1  0
M  END
>  <minimizedAffinity>  (1) 
-8.48293

>  <CNNscore>  (1) 
0.1983226389

>  <CNNaffinity>  (1) 
6.0594859123

>  <CNN_VS>  (1) 
1.2017332315

>  <CNNaffinity_variance>  (1) 
1.6682497263

$$$$
