ziftomenib.sdf
     RDKit          3D

 51 56  0  0  0  0  0  0  0  0999 V2000
  -28.8177    1.4342   23.4744 C   0  0  0  0  0  0  0  0  0  0  0  0
  -24.6971    0.4394   19.0563 C   0  0  0  0  0  0  0  0  0  0  0  0
  -25.4775   -0.6487   19.3731 N   0  0  0  0  0  0  0  0  0  0  0  0
  -25.1147    1.4916   19.8397 C   0  0  0  0  0  0  0  0  0  0  0  0
  -26.1756    1.0379   20.6783 C   0  0  0  0  0  0  0  0  0  0  0  0
  -26.3851   -0.3091   20.3627 C   0  0  0  0  0  0  0  0  0  0  0  0
  -27.3678   -1.0738   21.0018 C   0  0  0  0  0  0  0  0  0  0  0  0
  -28.1358   -0.4565   21.9877 C   0  0  0  0  0  0  0  0  0  0  0  0
  -27.9512    0.8889   22.3457 C   0  0  0  0  0  0  0  0  0  0  0  0
  -26.9626    1.6673   21.6846 C   0  0  0  0  0  0  0  0  0  0  0  0
  -26.7534    3.1129   22.0528 C   0  0  0  0  0  0  0  0  0  0  0  0
  -22.7476    0.4560   17.3640 N   0  0  0  0  0  0  0  0  0  0  0  0
  -23.6476    0.4468   18.0943 C   0  0  0  0  0  0  0  0  0  0  0  0
  -25.3058   -1.9854   18.8075 C   0  0  0  0  0  0  0  0  0  0  0  0
  -25.8072   -2.1338   17.3410 C   0  0  2  0  0  0  0  0  0  0  0  0
  -27.0844   -1.2880   17.1626 C   0  0  0  0  0  0  0  0  0  0  0  0
  -26.0980   -3.5354   16.9384 N   0  0  0  0  0  0  0  0  0  0  0  0
  -26.6015   -4.3718   18.0601 C   0  0  0  0  0  0  0  0  0  0  0  0
  -28.0955   -4.7532   17.9834 C   0  0  0  0  0  0  0  0  0  0  0  0
  -28.3979   -5.4712   16.7198 N   0  0  0  0  0  0  0  0  0  0  0  0
  -27.5495   -5.0842   15.5656 C   0  0  0  0  0  0  0  0  0  0  0  0
  -26.9686   -3.6694   15.7534 C   0  0  0  0  0  0  0  0  0  0  0  0
  -29.9962   -5.9151   16.4341 S   0  0  0  0  0  0  0  0  0  0  0  0
  -30.0623   -7.3607   16.4265 O   0  0  0  0  0  0  0  0  0  0  0  0
  -30.8335   -5.3387   17.9002 C   0  0  0  0  0  0  0  0  0  0  0  0
  -30.4788   -5.1338   15.3153 O   0  0  0  0  0  0  0  0  0  0  0  0
  -28.5616    0.7750   24.7660 N   0  0  0  0  0  0  0  0  0  0  0  0
  -28.5604    1.7020   25.9052 C   0  0  0  0  0  0  0  0  0  0  0  0
  -27.3130    2.5826   25.9896 C   0  0  0  0  0  0  0  0  0  0  0  0
  -26.0316    1.7420   25.9603 C   0  0  0  0  0  0  0  0  0  0  0  0
  -26.0538    0.7899   24.7605 C   0  0  0  0  0  0  0  0  0  0  0  0
  -27.3379   -0.0346   24.7476 C   0  0  0  0  0  0  0  0  0  0  0  0
  -24.8870    2.6538   25.8748 N   0  0  0  0  0  0  0  0  0  0  0  0
  -24.6638    3.1181   25.0358 H   0  0  0  0  0  0  0  0  0  0  0  0
  -24.1262    2.8375   27.0303 C   0  0  0  0  0  0  0  0  0  0  0  0
  -22.7433    3.0880   26.9762 C   0  0  0  0  0  0  0  0  0  0  0  0
  -21.8028    3.2227   25.8972 C   0  0  0  0  0  0  0  0  0  0  0  0
  -20.5153    3.4706   26.3313 C   0  0  0  0  0  0  0  0  0  0  0  0
  -20.4404    3.5448   28.0412 S   0  0  0  0  0  0  0  0  0  0  0  0
  -22.1114    3.2452   28.1955 C   0  0  0  0  0  0  0  0  0  0  0  0
  -22.6824    3.1843   29.4057 N   0  0  0  0  0  0  0  0  0  0  0  0
  -23.9933    2.9553   29.3619 C   0  0  0  0  0  0  0  0  0  0  0  0
  -24.7161    2.7868   28.2447 N   0  0  0  0  0  0  0  0  0  0  0  0
  -24.6209    2.8899   30.6021 N   0  0  0  0  0  0  0  0  0  0  0  0
  -24.1560    3.8841   31.5442 C   0  0  0  0  0  0  0  0  0  0  0  0
  -25.3169    2.2281   30.8184 H   0  0  0  0  0  0  0  0  0  0  0  0
  -19.2721    3.6621   25.5081 C   0  0  0  0  0  0  0  0  0  0  0  0
  -19.2685    2.8390   24.2325 C   0  0  0  0  0  0  0  0  0  0  0  0
  -18.0107    2.5455   23.8312 F   0  0  0  0  0  0  0  0  0  0  0  0
  -19.9476    1.6805   24.3713 F   0  0  0  0  0  0  0  0  0  0  0  0
  -19.8564    3.5328   23.2287 F   0  0  0  0  0  0  0  0  0  0  0  0
 12 13  3  0
 13  2  1  0
  2  3  1  0
  3 14  1  0
 14 15  1  0
 15 17  1  0
 17 18  1  0
 18 19  1  0
 19 20  1  0
 20 23  1  0
 23 24  2  0
 23 25  1  0
 23 26  2  0
 20 21  1  0
 21 22  1  0
 17 22  1  0
 15 16  1  1
  2  4  2  0
  4  5  1  0
  5  6  2  0
  3  6  1  0
  6  7  1  0
  7  8  2  0
  8  9  1  0
  9  1  1  0
  1 27  1  0
 27 28  1  0
 28 29  1  0
 29 30  1  0
 30 33  1  0
 33 35  1  0
 35 36  2  0
 36 37  1  0
 37 38  2  0
 38 47  1  0
 47 48  1  0
 48 49  1  0
 48 50  1  0
 48 51  1  0
 38 39  1  0
 36 40  1  0
 39 40  1  0
 40 41  2  0
 41 42  1  0
 42 44  1  0
 44 45  1  0
 42 43  2  0
 35 43  1  0
 30 31  1  0
 31 32  1  0
 27 32  1  0
  9 10  2  0
  5 10  1  0
 10 11  1  0
 33 34  1  0
 44 46  1  0
M  END
>  <minimizedAffinity>  (1) 
-8.59469

>  <CNNscore>  (1) 
0.1545450836

>  <CNNaffinity>  (1) 
6.5300469398

>  <CNN_VS>  (1) 
1.0091866255

>  <CNNaffinity_variance>  (1) 
1.2616597414

$$$$
