ziftomenib.sdf
     RDKit          3D

 51 56  0  0  0  0  0  0  0  0999 V2000
  -21.0647   -0.5957   19.7783 C   0  0  0  0  0  0  0  0  0  0  0  0
  -19.2124    2.6621   24.6203 C   0  0  0  0  0  0  0  0  0  0  0  0
  -20.4310    2.0417   24.7741 N   0  0  0  0  0  0  0  0  0  0  0  0
  -18.7291    2.3244   23.3763 C   0  0  0  0  0  0  0  0  0  0  0  0
  -19.6840    1.4819   22.7335 C   0  0  0  0  0  0  0  0  0  0  0  0
  -20.7418    1.3183   23.6347 C   0  0  0  0  0  0  0  0  0  0  0  0
  -21.8617    0.5375   23.3261 C   0  0  0  0  0  0  0  0  0  0  0  0
  -21.9070   -0.0712   22.0729 C   0  0  0  0  0  0  0  0  0  0  0  0
  -20.8743    0.0765   21.1326 C   0  0  0  0  0  0  0  0  0  0  0  0
  -19.7314    0.8577   21.4544 C   0  0  0  0  0  0  0  0  0  0  0  0
  -18.6124    1.0238   20.4596 C   0  0  0  0  0  0  0  0  0  0  0  0
  -18.0781    4.1327   26.4134 N   0  0  0  0  0  0  0  0  0  0  0  0
  -18.5900    3.5034   25.5856 C   0  0  0  0  0  0  0  0  0  0  0  0
  -21.3025    2.2022   25.9364 C   0  0  0  0  0  0  0  0  0  0  0  0
  -21.8508    3.6457   26.1362 C   0  0  2  0  0  0  0  0  0  0  0  0
  -21.6987    4.0359   27.6205 C   0  0  0  0  0  0  0  0  0  0  0  0
  -23.2733    3.8147   25.7375 N   0  0  0  0  0  0  0  0  0  0  0  0
  -23.4328    4.4205   24.3888 C   0  0  0  0  0  0  0  0  0  0  0  0
  -23.9411    3.4640   23.2887 C   0  0  0  0  0  0  0  0  0  0  0  0
  -25.2451    2.8632   23.6660 N   0  0  0  0  0  0  0  0  0  0  0  0
  -25.4476    2.6803   25.1244 C   0  0  0  0  0  0  0  0  0  0  0  0
  -24.0994    2.5977   25.8660 C   0  0  0  0  0  0  0  0  0  0  0  0
  -25.9270    1.7441   22.6096 S   0  0  0  0  0  0  0  0  0  0  0  0
  -27.3492    2.0033   22.5434 O   0  0  0  0  0  0  0  0  0  0  0  0
  -25.2159    2.2010   21.0385 C   0  0  0  0  0  0  0  0  0  0  0  0
  -25.4159    0.4363   22.9608 O   0  0  0  0  0  0  0  0  0  0  0  0
  -22.3918   -1.2150   19.6251 N   0  0  0  0  0  0  0  0  0  0  0  0
  -22.5471   -2.4605   20.3879 C   0  0  0  0  0  0  0  0  0  0  0  0
  -21.8056   -3.6550   19.7866 C   0  0  0  0  0  0  0  0  0  0  0  0
  -22.1763   -3.8599   18.3135 C   0  0  0  0  0  0  0  0  0  0  0  0
  -21.9991   -2.5502   17.5389 C   0  0  0  0  0  0  0  0  0  0  0  0
  -22.7573   -1.4131   18.2178 C   0  0  0  0  0  0  0  0  0  0  0  0
  -21.3093   -4.9063   17.7637 N   0  0  0  0  0  0  0  0  0  0  0  0
  -20.5383   -4.6849   17.1930 H   0  0  0  0  0  0  0  0  0  0  0  0
  -21.6206   -6.2291   18.0817 C   0  0  0  0  0  0  0  0  0  0  0  0
  -20.7680   -7.0231   18.8697 C   0  0  0  0  0  0  0  0  0  0  0  0
  -19.5041   -6.7833   19.5113 C   0  0  0  0  0  0  0  0  0  0  0  0
  -19.0278   -7.8854   20.1941 C   0  0  0  0  0  0  0  0  0  0  0  0
  -20.1069   -9.2096   20.0648 S   0  0  0  0  0  0  0  0  0  0  0  0
  -21.1954   -8.3167   19.1036 C   0  0  0  0  0  0  0  0  0  0  0  0
  -22.3280   -8.8772   18.6596 N   0  0  0  0  0  0  0  0  0  0  0  0
  -23.0781   -8.0515   17.9329 C   0  0  0  0  0  0  0  0  0  0  0  0
  -22.7723   -6.7791   17.6387 N   0  0  0  0  0  0  0  0  0  0  0  0
  -24.2657   -8.5996   17.4580 N   0  0  0  0  0  0  0  0  0  0  0  0
  -24.4154   -8.5119   16.0221 C   0  0  0  0  0  0  0  0  0  0  0  0
  -24.9416   -9.0092   18.0451 H   0  0  0  0  0  0  0  0  0  0  0  0
  -17.7500   -8.0208   20.9745 C   0  0  0  0  0  0  0  0  0  0  0  0
  -17.7752   -7.2723   22.2950 C   0  0  0  0  0  0  0  0  0  0  0  0
  -18.4377   -6.0978   22.1906 F   0  0  0  0  0  0  0  0  0  0  0  0
  -18.3506   -7.9946   23.2796 F   0  0  0  0  0  0  0  0  0  0  0  0
  -16.5124   -6.9847   22.6915 F   0  0  0  0  0  0  0  0  0  0  0  0
 12 13  3  0
 13  2  1  0
  2  3  1  0
  3 14  1  0
 14 15  1  0
 15 17  1  0
 17 18  1  0
 18 19  1  0
 19 20  1  0
 20 23  1  0
 23 24  2  0
 23 25  1  0
 23 26  2  0
 20 21  1  0
 21 22  1  0
 17 22  1  0
 15 16  1  1
  2  4  2  0
  4  5  1  0
  5  6  2  0
  3  6  1  0
  6  7  1  0
  7  8  2  0
  8  9  1  0
  9  1  1  0
  1 27  1  0
 27 28  1  0
 28 29  1  0
 29 30  1  0
 30 33  1  0
 33 35  1  0
 35 36  2  0
 36 37  1  0
 37 38  2  0
 38 47  1  0
 47 48  1  0
 48 49  1  0
 48 50  1  0
 48 51  1  0
 38 39  1  0
 36 40  1  0
 39 40  1  0
 40 41  2  0
 41 42  1  0
 42 44  1  0
 44 45  1  0
 42 43  2  0
 35 43  1  0
 30 31  1  0
 31 32  1  0
 27 32  1  0
  9 10  2  0
  5 10  1  0
 10 11  1  0
 33 34  1  0
 44 46  1  0
M  END
>  <minimizedAffinity>  (1) 
-8.73448

>  <CNNscore>  (1) 
0.2041009814

>  <CNNaffinity>  (1) 
7.1307501793

>  <CNN_VS>  (1) 
1.4553930759

>  <CNNaffinity_variance>  (1) 
1.2225347757

$$$$
