NS-C-142.sdf
     RDKit          3D

 26 29  0  0  0  0  0  0  0  0999 V2000
  -21.6907    0.0830   20.8119 N   0  0  0  0  0  0  0  0  0  0  0  0
  -22.1273   -0.1313   19.4358 C   0  0  0  0  0  0  0  0  0  0  0  0
  -21.5061   -1.4733   19.0653 C   0  0  0  0  0  0  0  0  0  0  0  0
  -21.5760   -2.2592   20.3696 C   0  0  2  0  0  0  0  0  0  0  0  0
  -21.2757   -1.1801   21.4358 C   0  0  0  0  0  0  0  0  0  0  0  0
  -20.9217    2.0931   21.9305 C   0  0  0  0  0  0  0  0  0  0  0  0
  -21.1681    3.2711   22.6467 C   0  0  0  0  0  0  0  0  0  0  0  0
  -22.4702    3.6157   22.9727 C   0  0  0  0  0  0  0  0  0  0  0  0
  -23.5274    2.8089   22.5956 C   0  0  0  0  0  0  0  0  0  0  0  0
  -23.2681    1.6385   21.8828 C   0  0  0  0  0  0  0  0  0  0  0  0
  -21.9612    1.2319   21.5294 C   0  0  0  0  0  0  0  0  0  0  0  0
  -22.7059    4.7424   23.6566 F   0  0  0  0  0  0  0  0  0  0  0  0
  -24.3316    0.8888   21.5483 F   0  0  0  0  0  0  0  0  0  0  0  0
  -20.8844   -4.4644   21.2066 C   0  0  0  0  0  0  0  0  0  0  0  0
  -21.7588   -4.4911   22.0639 O   0  0  0  0  0  0  0  0  0  0  0  0
  -20.6671   -3.3957   20.3677 N   0  0  0  0  0  0  0  0  0  0  0  0
  -19.8912   -3.4000   19.7618 H   0  0  0  0  0  0  0  0  0  0  0  0
  -20.0008   -5.6442   20.9636 C   0  0  0  0  0  0  0  0  0  0  0  0
  -20.0205   -6.3100   19.7906 C   0  0  0  0  0  0  0  0  0  0  0  0
  -19.1519   -7.3827   19.6153 N   0  0  0  0  0  0  0  0  0  0  0  0
  -18.2513   -7.8170   20.5746 C   0  0  0  0  0  0  0  0  0  0  0  0
  -18.2055   -7.1011   21.8004 C   0  0  0  0  0  0  0  0  0  0  0  0
  -19.0370   -6.0565   21.9868 C   0  0  0  0  0  0  0  0  0  0  0  0
  -18.9689   -8.2222   18.5531 C   0  0  0  0  0  0  0  0  0  0  0  0
  -18.0438   -9.1118   18.8365 N   0  0  0  0  0  0  0  0  0  0  0  0
  -17.5896   -8.8557   20.1135 N   0  0  0  0  0  0  0  0  0  0  0  0
 14 18  1  0
 14 15  2  0
 18 19  2  0
 19 20  1  0
 20 21  1  0
 21 22  1  0
 22 23  2  0
 23 18  1  0
 20 24  1  0
 24 25  2  0
 25 26  1  0
 26 21  2  0
  6  7  2  0
  7  8  1  0
  8  9  2  0
  9 10  1  0
 10 11  2  0
 11  6  1  0
  8 12  1  0
 11  1  1  0
  1  2  1  0
  2  3  1  0
  3  4  1  0
  4  5  1  0
  5  1  1  0
  4 16  1  6
 14 16  1  0
 10 13  1  0
 16 17  1  0
M  END
>  <minimizedAffinity>  (1) 
-7.28639

>  <CNNscore>  (1) 
0.3802568913

>  <CNNaffinity>  (1) 
5.1305160522

>  <CNN_VS>  (1) 
1.9509140253

>  <CNNaffinity_variance>  (1) 
0.2649562657

$$$$
