NS-C-142.sdf
     RDKit          3D

 26 29  0  0  0  0  0  0  0  0999 V2000
  -19.9593   -6.2158   23.0873 N   0  0  0  0  0  0  0  0  0  0  0  0
  -20.9954   -5.9318   24.0753 C   0  0  0  0  0  0  0  0  0  0  0  0
  -20.9711   -4.4124   24.1966 C   0  0  0  0  0  0  0  0  0  0  0  0
  -20.6610   -3.9563   22.7755 C   0  0  2  0  0  0  0  0  0  0  0  0
  -19.6547   -5.0235   22.2855 C   0  0  0  0  0  0  0  0  0  0  0  0
  -20.4890   -8.5654   22.8010 C   0  0  0  0  0  0  0  0  0  0  0  0
  -20.1353   -9.8676   22.4261 C   0  0  0  0  0  0  0  0  0  0  0  0
  -18.8563  -10.1227   21.9578 C   0  0  0  0  0  0  0  0  0  0  0  0
  -17.9279   -9.1037   21.8550 C   0  0  0  0  0  0  0  0  0  0  0  0
  -18.2931   -7.8116   22.2317 C   0  0  0  0  0  0  0  0  0  0  0  0
  -19.5794   -7.4931   22.7239 C   0  0  0  0  0  0  0  0  0  0  0  0
  -18.5183  -11.3675   21.5986 F   0  0  0  0  0  0  0  0  0  0  0  0
  -17.3498   -6.8616   22.1181 F   0  0  0  0  0  0  0  0  0  0  0  0
  -20.9554   -1.5808   22.2167 C   0  0  0  0  0  0  0  0  0  0  0  0
  -22.0303   -1.7723   21.6617 O   0  0  0  0  0  0  0  0  0  0  0  0
  -20.1740   -2.5854   22.7395 N   0  0  0  0  0  0  0  0  0  0  0  0
  -19.2790   -2.3753   23.0918 H   0  0  0  0  0  0  0  0  0  0  0  0
  -20.4246   -0.1997   22.4229 C   0  0  0  0  0  0  0  0  0  0  0  0
  -20.8814    0.5900   23.4165 C   0  0  0  0  0  0  0  0  0  0  0  0
  -20.3254    1.8557   23.5747 N   0  0  0  0  0  0  0  0  0  0  0  0
  -19.3165    2.3659   22.7736 C   0  0  0  0  0  0  0  0  0  0  0  0
  -18.8112    1.5274   21.7446 C   0  0  0  0  0  0  0  0  0  0  0  0
  -19.3350    0.2964   21.5787 C   0  0  0  0  0  0  0  0  0  0  0  0
  -20.5977    2.8472   24.4743 C   0  0  0  0  0  0  0  0  0  0  0  0
  -19.8328    3.8900   24.2402 N   0  0  0  0  0  0  0  0  0  0  0  0
  -19.0227    3.5862   23.1661 N   0  0  0  0  0  0  0  0  0  0  0  0
 14 18  1  0
 14 15  2  0
 18 19  2  0
 19 20  1  0
 20 21  1  0
 21 22  1  0
 22 23  2  0
 23 18  1  0
 20 24  1  0
 24 25  2  0
 25 26  1  0
 26 21  2  0
  6  7  2  0
  7  8  1  0
  8  9  2  0
  9 10  1  0
 10 11  2  0
 11  6  1  0
  8 12  1  0
 11  1  1  0
  1  2  1  0
  2  3  1  0
  3  4  1  0
  4  5  1  0
  5  1  1  0
  4 16  1  1
 14 16  1  0
 10 13  1  0
 16 17  1  0
M  END
>  <minimizedAffinity>  (1) 
-6.97295

>  <CNNscore>  (1) 
0.7044155598

>  <CNNaffinity>  (1) 
5.6003627777

>  <CNN_VS>  (1) 
3.9449827671

>  <CNNaffinity_variance>  (1) 
0.1039964184

$$$$
