NS-C-142.sdf
     RDKit          3D

 26 29  0  0  0  0  0  0  0  0999 V2000
  -18.8573  -10.2777   22.1926 N   0  0  0  0  0  0  0  0  0  0  0  0
  -18.0324  -11.1726   22.9981 C   0  0  0  0  0  0  0  0  0  0  0  0
  -18.4180  -12.5618   22.5028 C   0  0  0  0  0  0  0  0  0  0  0  0
  -18.6619  -12.3435   21.0140 C   0  0  2  0  0  0  0  0  0  0  0  0
  -19.3346  -10.9515   20.9780 C   0  0  0  0  0  0  0  0  0  0  0  0
  -17.8126   -8.1023   21.9485 C   0  0  0  0  0  0  0  0  0  0  0  0
  -17.8252   -6.7098   22.0975 C   0  0  0  0  0  0  0  0  0  0  0  0
  -18.9279   -6.0909   22.6644 C   0  0  0  0  0  0  0  0  0  0  0  0
  -20.0157   -6.8348   23.0816 C   0  0  0  0  0  0  0  0  0  0  0  0
  -19.9902   -8.2207   22.9275 C   0  0  0  0  0  0  0  0  0  0  0  0
  -18.8906   -8.9075   22.3642 C   0  0  0  0  0  0  0  0  0  0  0  0
  -18.9404   -4.7595   22.8060 F   0  0  0  0  0  0  0  0  0  0  0  0
  -21.0705   -8.8945   23.3565 F   0  0  0  0  0  0  0  0  0  0  0  0
  -19.7097  -13.4375   19.0783 C   0  0  0  0  0  0  0  0  0  0  0  0
  -19.4189  -12.5241   18.3159 O   0  0  0  0  0  0  0  0  0  0  0  0
  -19.4429  -13.4225   20.4280 N   0  0  0  0  0  0  0  0  0  0  0  0
  -19.7829  -14.1469   21.0014 H   0  0  0  0  0  0  0  0  0  0  0  0
  -20.3426  -14.6943   18.5765 C   0  0  0  0  0  0  0  0  0  0  0  0
  -20.1333  -15.1356   17.3192 C   0  0  0  0  0  0  0  0  0  0  0  0
  -20.7276  -16.3292   16.9212 N   0  0  0  0  0  0  0  0  0  0  0  0
  -21.5266  -17.1096   17.7413 C   0  0  0  0  0  0  0  0  0  0  0  0
  -21.7260  -16.6649   19.0754 C   0  0  0  0  0  0  0  0  0  0  0  0
  -21.1550  -15.5127   19.4799 C   0  0  0  0  0  0  0  0  0  0  0  0
  -20.6918  -16.9928   15.7276 C   0  0  0  0  0  0  0  0  0  0  0  0
  -21.4204  -18.0844   15.7974 N   0  0  0  0  0  0  0  0  0  0  0  0
  -21.9475  -18.1590   17.0698 N   0  0  0  0  0  0  0  0  0  0  0  0
 14 18  1  0
 14 15  2  0
 18 19  2  0
 19 20  1  0
 20 21  1  0
 21 22  1  0
 22 23  2  0
 23 18  1  0
 20 24  1  0
 24 25  2  0
 25 26  1  0
 26 21  2  0
  6  7  2  0
  7  8  1  0
  8  9  2  0
  9 10  1  0
 10 11  2  0
 11  6  1  0
  8 12  1  0
 11  1  1  0
  1  2  1  0
  2  3  1  0
  3  4  1  0
  4  5  1  0
  5  1  1  0
  4 16  1  1
 14 16  1  0
 10 13  1  0
 16 17  1  0
M  END
>  <minimizedAffinity>  (1) 
-7.75044

>  <CNNscore>  (1) 
0.3873612881

>  <CNNaffinity>  (1) 
5.5101170540

>  <CNN_VS>  (1) 
2.1344060898

>  <CNNaffinity_variance>  (1) 
0.0861674175

$$$$
