7uj4
     RDKit          3D

 45 49  0  0  0  0  0  0  0  0999 V2000
  -23.7818    2.5735   24.4496 N   0  0  0  0  0  0  0  0  0  0  0  0
  -28.0935    1.9599   22.2463 N   0  0  0  0  0  0  0  0  0  0  0  0
  -25.1081    1.9947   24.5842 C   0  0  0  0  0  0  0  0  0  0  0  0
  -23.8428    3.0741   23.0813 C   0  0  0  0  0  0  0  0  0  0  0  0
  -25.3479    2.5762   23.1239 C   0  0  0  0  0  0  0  0  0  0  0  0
  -26.4304    3.6524   23.0507 C   0  0  0  0  0  0  0  0  0  0  0  0
  -27.8040    3.0517   23.2435 C   0  0  0  0  0  0  0  0  0  0  0  0
  -25.6584    1.5074   22.0797 C   0  0  0  0  0  0  0  0  0  0  0  0
  -27.0297    0.9062   22.2648 C   0  0  0  0  0  0  0  0  0  0  0  0
  -20.8666    3.2571   27.2156 N   0  0  0  0  0  0  0  0  0  0  0  0
  -22.9729    3.7782   26.2497 N   0  0  0  0  0  0  0  0  0  0  0  0
  -21.6909    1.9815   25.4442 C   0  0  0  0  0  0  0  0  0  0  0  0
  -20.7193    2.2539   26.3739 C   0  0  0  0  0  0  0  0  0  0  0  0
  -22.0097    3.9500   27.1615 C   0  0  0  0  0  0  0  0  0  0  0  0
  -22.8363    2.7664   25.4038 C   0  0  0  0  0  0  0  0  0  0  0  0
  -21.5065    0.9422   24.5955 O   0  0  0  0  0  0  0  0  0  0  0  0
  -20.8161    0.1264   22.4549 C   0  0  0  0  0  0  0  0  0  0  0  0
  -19.9359    0.2188   21.3754 C   0  0  0  0  0  0  0  0  0  0  0  0
  -18.9865    1.2104   21.3858 C   0  0  0  0  0  0  0  0  0  0  0  0
  -18.8350    2.1194   22.4064 C   0  0  0  0  0  0  0  0  0  0  0  0
  -19.6892    2.0133   23.4872 C   0  0  0  0  0  0  0  0  0  0  0  0
  -20.6280    1.0053   23.5245 C   0  0  0  0  0  0  0  0  0  0  0  0
  -18.1347    1.3143   20.3428 F   0  0  0  0  0  0  0  0  0  0  0  0
  -21.8855   -2.0143   23.2465 N   0  0  0  0  0  0  0  0  0  0  0  0
  -22.9474   -0.6558   21.8497 O   0  0  0  0  0  0  0  0  0  0  0  0
  -21.9428   -0.8928   22.5059 C   0  0  0  0  0  0  0  0  0  0  0  0
  -20.1058   -3.6879   23.1521 C   0  0  0  0  0  0  0  0  0  0  0  0
  -20.6599   -2.4941   23.8975 C   0  0  0  0  0  0  0  0  0  0  0  0
  -20.8913   -2.7523   25.3643 C   0  0  0  0  0  0  0  0  0  0  0  0
  -23.0497   -2.9025   23.3798 C   0  0  0  0  0  0  0  0  0  0  0  0
  -23.2998   -3.7457   22.1647 C   0  0  0  0  0  0  0  0  0  0  0  0
  -29.4058    1.3057   22.5518 C   0  0  0  0  0  0  0  0  0  0  0  0
  -29.6529    1.0858   24.0447 C   0  0  1  0  0  0  0  0  0  0  0  0
  -28.4003    0.6028   24.7904 C   0  0  0  0  0  0  0  0  0  0  0  0
  -28.6398    0.4160   26.2792 C   0  0  0  0  0  0  0  0  0  0  0  0
  -30.2341    2.3367   24.6999 C   0  0  0  0  0  0  0  0  0  0  0  0
  -30.5126    2.0987   26.1769 C   0  0  0  0  0  0  0  0  0  0  0  0
  -29.2489    1.6563   26.8966 C   0  0  1  0  0  0  0  0  0  0  0  0
  -29.5686    1.4208   28.3154 N   0  0  0  0  0  0  0  0  0  0  0  0
  -30.5759    1.5558   28.4022 H   0  0  0  0  0  0  0  0  0  0  0  0
  -28.8953    2.2720   29.5328 S   0  0  0  0  0  0  0  0  0  0  0  0
  -27.9551    3.1423   28.8934 O   0  0  0  0  0  0  0  0  0  0  0  0
  -29.9752    2.8393   30.2895 O   0  0  0  0  0  0  0  0  0  0  0  0
  -28.0180    1.0822   30.5329 C   0  0  0  0  0  0  0  0  0  0  0  0
  -28.8784   -0.0920   30.9537 C   0  0  0  0  0  0  0  0  0  0  0  0
 27 28  1  0
 24 30  1  0
 24 26  1  0
 41 42  2  0
 41 43  2  0
 41 44  1  0
 24 28  1  0
 28 29  1  0
 10 14  2  0
 16 12  1  0
 11 15  2  0
 30 31  1  0
  1  3  1  0
  1  4  1  0
  2 32  1  0
 25 26  2  0
 26 17  1  0
 41 39  1  0
 17 18  2  0
 17 22  1  0
 18 19  1  0
 19 20  2  0
 19 23  1  0
 20 21  1  0
 21 22  2  0
 16 22  1  0
 12 13  2  0
 12 15  1  0
 10 13  1  0
 11 14  1  0
  1 15  1  0
  3  5  1  0
  4  5  1  0
  5  6  1  0
  5  8  1  0
  6  7  1  0
  2  7  1  0
  8  9  1  0
  2  9  1  0
 33 32  1  6
 33 34  1  0
 33 36  1  0
 34 35  1  0
 35 38  1  0
 36 37  1  0
 37 38  1  0
 38 39  1  1
 44 45  1  0
 39 40  1  0
M  END
>  <minimizedAffinity>  (1) 
-7.79720

>  <CNNscore>  (1) 
0.2085777670

>  <CNNaffinity>  (1) 
6.7958025932

>  <CNN_VS>  (1) 
1.4174532890

>  <CNNaffinity_variance>  (1) 
0.5275623798

$$$$
