NS-C-142.sdf
     RDKit          3D

 26 29  0  0  0  0  0  0  0  0999 V2000
  -21.9825   -1.9244   25.1437 N   0  0  0  0  0  0  0  0  0  0  0  0
  -23.2445   -2.6488   25.2577 C   0  0  0  0  0  0  0  0  0  0  0  0
  -22.9873   -3.9432   24.4946 C   0  0  0  0  0  0  0  0  0  0  0  0
  -21.5241   -4.2411   24.8008 C   0  0  2  0  0  0  0  0  0  0  0  0
  -20.8815   -2.8345   24.8021 C   0  0  0  0  0  0  0  0  0  0  0  0
  -22.0857   -0.3310   26.9694 C   0  0  0  0  0  0  0  0  0  0  0  0
  -21.8859    0.9527   27.4923 C   0  0  0  0  0  0  0  0  0  0  0  0
  -21.3754    1.9523   26.6796 C   0  0  0  0  0  0  0  0  0  0  0  0
  -21.0596    1.6932   25.3589 C   0  0  0  0  0  0  0  0  0  0  0  0
  -21.2634    0.4106   24.8509 C   0  0  0  0  0  0  0  0  0  0  0  0
  -21.7885   -0.6460   25.6294 C   0  0  0  0  0  0  0  0  0  0  0  0
  -21.1836    3.1795   27.1796 F   0  0  0  0  0  0  0  0  0  0  0  0
  -20.9462    0.2165   23.5598 F   0  0  0  0  0  0  0  0  0  0  0  0
  -20.4586   -4.7401   22.6426 C   0  0  0  0  0  0  0  0  0  0  0  0
  -20.5626   -3.5864   22.2450 O   0  0  0  0  0  0  0  0  0  0  0  0
  -20.9510   -5.1813   23.8493 N   0  0  0  0  0  0  0  0  0  0  0  0
  -20.9153   -6.1399   24.0706 H   0  0  0  0  0  0  0  0  0  0  0  0
  -19.7204   -5.7695   21.8507 C   0  0  0  0  0  0  0  0  0  0  0  0
  -20.1173   -6.1236   20.6111 C   0  0  0  0  0  0  0  0  0  0  0  0
  -19.3700   -7.0670   19.9130 N   0  0  0  0  0  0  0  0  0  0  0  0
  -18.2264   -7.6725   20.4086 C   0  0  0  0  0  0  0  0  0  0  0  0
  -17.7871   -7.2815   21.7014 C   0  0  0  0  0  0  0  0  0  0  0  0
  -18.4964   -6.3658   22.3913 C   0  0  0  0  0  0  0  0  0  0  0  0
  -19.5438   -7.6049   18.6692 C   0  0  0  0  0  0  0  0  0  0  0  0
  -18.5966   -8.4816   18.4215 N   0  0  0  0  0  0  0  0  0  0  0  0
  -17.7635   -8.5242   19.5200 N   0  0  0  0  0  0  0  0  0  0  0  0
 14 18  1  0
 14 15  2  0
 18 19  2  0
 19 20  1  0
 20 21  1  0
 21 22  1  0
 22 23  2  0
 23 18  1  0
 20 24  1  0
 24 25  2  0
 25 26  1  0
 26 21  2  0
  6  7  2  0
  7  8  1  0
  8  9  2  0
  9 10  1  0
 10 11  2  0
 11  6  1  0
  8 12  1  0
 11  1  1  0
  1  2  1  0
  2  3  1  0
  3  4  1  0
  4  5  1  0
  5  1  1  0
  4 16  1  6
 14 16  1  0
 10 13  1  0
 16 17  1  0
M  END
>  <minimizedAffinity>  (1) 
-6.69095

>  <CNNscore>  (1) 
0.6370656490

>  <CNNaffinity>  (1) 
5.6904959679

>  <CNN_VS>  (1) 
3.6252195835

>  <CNNaffinity_variance>  (1) 
0.1054289266

$$$$
