7uj4
     RDKit          3D

 45 49  0  0  0  0  0  0  0  0999 V2000
  -21.3576   -2.1804   22.9588 N   0  0  0  0  0  0  0  0  0  0  0  0
  -22.8105   -5.3584   26.3663 N   0  0  0  0  0  0  0  0  0  0  0  0
  -22.5094   -2.8539   23.5351 C   0  0  0  0  0  0  0  0  0  0  0  0
  -20.2998   -2.6442   23.8490 C   0  0  0  0  0  0  0  0  0  0  0  0
  -21.4459   -3.5150   24.5149 C   0  0  0  0  0  0  0  0  0  0  0  0
  -21.3263   -5.0319   24.3743 C   0  0  0  0  0  0  0  0  0  0  0  0
  -22.5504   -5.7245   24.9281 C   0  0  0  0  0  0  0  0  0  0  0  0
  -21.6763   -3.1832   25.9866 C   0  0  0  0  0  0  0  0  0  0  0  0
  -22.8950   -3.8742   26.5462 C   0  0  0  0  0  0  0  0  0  0  0  0
  -20.9390   -0.0888   19.4851 N   0  0  0  0  0  0  0  0  0  0  0  0
  -21.1433   -2.1446   20.6569 N   0  0  0  0  0  0  0  0  0  0  0  0
  -21.2238   -0.0940   21.8010 C   0  0  0  0  0  0  0  0  0  0  0  0
  -21.0593    0.5773   20.6158 C   0  0  0  0  0  0  0  0  0  0  0  0
  -21.0394   -1.4218   19.5364 C   0  0  0  0  0  0  0  0  0  0  0  0
  -21.2724   -1.4823   21.7983 C   0  0  0  0  0  0  0  0  0  0  0  0
  -21.3449    0.6230   22.9437 O   0  0  0  0  0  0  0  0  0  0  0  0
  -21.9607    2.8183   23.6691 C   0  0  0  0  0  0  0  0  0  0  0  0
  -22.9553    3.7872   23.8119 C   0  0  0  0  0  0  0  0  0  0  0  0
  -24.2124    3.5127   23.3329 C   0  0  0  0  0  0  0  0  0  0  0  0
  -24.5633    2.3289   22.7279 C   0  0  0  0  0  0  0  0  0  0  0  0
  -23.5863    1.3594   22.6085 C   0  0  0  0  0  0  0  0  0  0  0  0
  -22.3249    1.5893   23.1133 C   0  0  0  0  0  0  0  0  0  0  0  0
  -25.1806    4.4460   23.4586 F   0  0  0  0  0  0  0  0  0  0  0  0
  -20.0597    2.7077   25.3205 N   0  0  0  0  0  0  0  0  0  0  0  0
  -19.7637    3.5618   23.2938 O   0  0  0  0  0  0  0  0  0  0  0  0
  -20.5234    3.0518   24.1055 C   0  0  0  0  0  0  0  0  0  0  0  0
  -21.4473    0.8893   26.1838 C   0  0  0  0  0  0  0  0  0  0  0  0
  -20.9257    2.2877   26.4294 C   0  0  0  0  0  0  0  0  0  0  0  0
  -22.0119    3.3014   26.6822 C   0  0  0  0  0  0  0  0  0  0  0  0
  -18.6321    2.8204   25.6538 C   0  0  0  0  0  0  0  0  0  0  0  0
  -18.3040    4.0336   26.4725 C   0  0  0  0  0  0  0  0  0  0  0  0
  -24.0988   -5.9611   26.8358 C   0  0  0  0  0  0  0  0  0  0  0  0
  -24.1636   -7.4804   26.6757 C   0  0  1  0  0  0  0  0  0  0  0  0
  -23.9397   -8.2283   27.9981 C   0  0  0  0  0  0  0  0  0  0  0  0
  -24.0366   -9.7367   27.8424 C   0  0  0  0  0  0  0  0  0  0  0  0
  -25.4709   -7.9123   26.0150 C   0  0  0  0  0  0  0  0  0  0  0  0
  -25.5124   -9.4215   25.8244 C   0  0  0  0  0  0  0  0  0  0  0  0
  -25.3237  -10.1353   27.1532 C   0  0  1  0  0  0  0  0  0  0  0  0
  -25.3529  -11.5895   26.9189 N   0  0  0  0  0  0  0  0  0  0  0  0
  -25.3614  -11.7105   25.9061 H   0  0  0  0  0  0  0  0  0  0  0  0
  -26.5286  -12.5609   27.4967 S   0  0  0  0  0  0  0  0  0  0  0  0
  -27.2320  -11.7559   28.4493 O   0  0  0  0  0  0  0  0  0  0  0  0
  -27.2341  -13.0805   26.3596 O   0  0  0  0  0  0  0  0  0  0  0  0
  -25.6910  -13.8891   28.3451 C   0  0  0  0  0  0  0  0  0  0  0  0
  -26.4527  -15.1983   28.3006 C   0  0  0  0  0  0  0  0  0  0  0  0
 27 28  1  0
 24 30  1  0
 24 26  1  0
 41 42  2  0
 41 43  2  0
 41 44  1  0
 24 28  1  0
 28 29  1  0
 10 14  2  0
 16 12  1  0
 11 15  2  0
 30 31  1  0
  1  3  1  0
  1  4  1  0
  2 32  1  0
 25 26  2  0
 26 17  1  0
 41 39  1  0
 17 18  2  0
 17 22  1  0
 18 19  1  0
 19 20  2  0
 19 23  1  0
 20 21  1  0
 21 22  2  0
 16 22  1  0
 12 13  2  0
 12 15  1  0
 10 13  1  0
 11 14  1  0
  1 15  1  0
  3  5  1  0
  4  5  1  0
  5  6  1  0
  5  8  1  0
  6  7  1  0
  2  7  1  0
  8  9  1  0
  2  9  1  0
 33 32  1  1
 33 34  1  0
 33 36  1  0
 34 35  1  0
 35 38  1  0
 36 37  1  0
 37 38  1  0
 38 39  1  6
 44 45  1  0
 39 40  1  0
M  END
>  <minimizedAffinity>  (1) 
-7.55083

>  <CNNscore>  (1) 
0.2731015682

>  <CNNaffinity>  (1) 
6.5302639008

>  <CNN_VS>  (1) 
1.7834253311

>  <CNNaffinity_variance>  (1) 
0.8015811443

$$$$
