NS-C-142.sdf
     RDKit          3D

 26 29  0  0  0  0  0  0  0  0999 V2000
  -20.7988    1.4271   23.4123 N   0  0  0  0  0  0  0  0  0  0  0  0
  -19.9485    0.4872   22.6887 C   0  0  0  0  0  0  0  0  0  0  0  0
  -20.8716   -0.0837   21.6182 C   0  0  0  0  0  0  0  0  0  0  0  0
  -21.7490    1.1063   21.2469 C   0  0  2  0  0  0  0  0  0  0  0  0
  -21.9664    1.8088   22.6073 C   0  0  0  0  0  0  0  0  0  0  0  0
  -21.2512    2.2938   25.6320 C   0  0  0  0  0  0  0  0  0  0  0  0
  -20.8566    2.9827   26.7858 C   0  0  0  0  0  0  0  0  0  0  0  0
  -19.5789    3.5131   26.8644 C   0  0  0  0  0  0  0  0  0  0  0  0
  -18.6900    3.3664   25.8160 C   0  0  0  0  0  0  0  0  0  0  0  0
  -19.0956    2.6782   24.6728 C   0  0  0  0  0  0  0  0  0  0  0  0
  -20.3880    2.1231   24.5325 C   0  0  0  0  0  0  0  0  0  0  0  0
  -19.2013    4.1711   27.9677 F   0  0  0  0  0  0  0  0  0  0  0  0
  -18.1943    2.5716   23.6822 F   0  0  0  0  0  0  0  0  0  0  0  0
  -22.9371    0.3552   19.2304 C   0  0  0  0  0  0  0  0  0  0  0  0
  -21.9500    0.4815   18.5165 O   0  0  0  0  0  0  0  0  0  0  0  0
  -22.9654    0.6917   20.5643 N   0  0  0  0  0  0  0  0  0  0  0  0
  -23.8148    0.6516   21.0604 H   0  0  0  0  0  0  0  0  0  0  0  0
  -24.2019   -0.2422   18.7058 C   0  0  0  0  0  0  0  0  0  0  0  0
  -24.2108   -1.0158   17.6008 C   0  0  0  0  0  0  0  0  0  0  0  0
  -25.4168   -1.5673   17.1796 N   0  0  0  0  0  0  0  0  0  0  0  0
  -26.6257   -1.3783   17.8298 C   0  0  0  0  0  0  0  0  0  0  0  0
  -26.6170   -0.5890   19.0106 C   0  0  0  0  0  0  0  0  0  0  0  0
  -25.4571   -0.0496   19.4360 C   0  0  0  0  0  0  0  0  0  0  0  0
  -25.7113   -2.3666   16.1115 C   0  0  0  0  0  0  0  0  0  0  0  0
  -26.9973   -2.6369   16.0925 N   0  0  0  0  0  0  0  0  0  0  0  0
  -27.5754   -2.0132   17.1784 N   0  0  0  0  0  0  0  0  0  0  0  0
 14 18  1  0
 14 15  2  0
 18 19  2  0
 19 20  1  0
 20 21  1  0
 21 22  1  0
 22 23  2  0
 23 18  1  0
 20 24  1  0
 24 25  2  0
 25 26  1  0
 26 21  2  0
  6  7  2  0
  7  8  1  0
  8  9  2  0
  9 10  1  0
 10 11  2  0
 11  6  1  0
  8 12  1  0
 11  1  1  0
  1  2  1  0
  2  3  1  0
  3  4  1  0
  4  5  1  0
  5  1  1  0
  4 16  1  1
 14 16  1  0
 10 13  1  0
 16 17  1  0
M  END
>  <minimizedAffinity>  (1) 
-6.65093

>  <CNNscore>  (1) 
0.5754504800

>  <CNNaffinity>  (1) 
5.5221419334

>  <CNN_VS>  (1) 
3.1777191162

>  <CNNaffinity_variance>  (1) 
0.0867993236

$$$$
