7uj4
     RDKit          3D

 45 49  0  0  0  0  0  0  0  0999 V2000
  -23.9941   -1.0261   24.7680 N   0  0  0  0  0  0  0  0  0  0  0  0
  -20.6375   -4.4780   23.9687 N   0  0  0  0  0  0  0  0  0  0  0  0
  -22.8307   -1.3846   23.9742 C   0  0  0  0  0  0  0  0  0  0  0  0
  -24.1899   -2.2536   25.5305 C   0  0  0  0  0  0  0  0  0  0  0  0
  -22.8652   -2.7390   24.8063 C   0  0  0  0  0  0  0  0  0  0  0  0
  -21.6390   -2.9591   25.6914 C   0  0  0  0  0  0  0  0  0  0  0  0
  -20.4204   -3.2803   24.8568 C   0  0  0  0  0  0  0  0  0  0  0  0
  -23.0700   -3.9836   23.9470 C   0  0  0  0  0  0  0  0  0  0  0  0
  -21.8557   -4.3114   23.1140 C   0  0  0  0  0  0  0  0  0  0  0  0
  -25.7514    2.6439   25.0125 N   0  0  0  0  0  0  0  0  0  0  0  0
  -25.8450    0.3304   24.4839 N   0  0  0  0  0  0  0  0  0  0  0  0
  -23.8904    1.2834   25.3738 C   0  0  0  0  0  0  0  0  0  0  0  0
  -24.5059    2.5088   25.4214 C   0  0  0  0  0  0  0  0  0  0  0  0
  -26.3954    1.5428   24.6096 C   0  0  0  0  0  0  0  0  0  0  0  0
  -24.5946    0.1837   24.9000 C   0  0  0  0  0  0  0  0  0  0  0  0
  -22.6099    1.1812   25.8030 O   0  0  0  0  0  0  0  0  0  0  0  0
  -22.2903    2.0311   28.0166 C   0  0  0  0  0  0  0  0  0  0  0  0
  -21.6832    2.9693   28.8531 C   0  0  0  0  0  0  0  0  0  0  0  0
  -20.8113    3.8744   28.3002 C   0  0  0  0  0  0  0  0  0  0  0  0
  -20.5041    3.9270   26.9610 C   0  0  0  0  0  0  0  0  0  0  0  0
  -21.1235    3.0151   26.1281 C   0  0  0  0  0  0  0  0  0  0  0  0
  -22.0327    2.1185   26.6462 C   0  0  0  0  0  0  0  0  0  0  0  0
  -20.2120    4.7817   29.1014 F   0  0  0  0  0  0  0  0  0  0  0  0
  -24.4561    1.1988   29.0013 N   0  0  0  0  0  0  0  0  0  0  0  0
  -22.8060   -0.2050   28.5209 O   0  0  0  0  0  0  0  0  0  0  0  0
  -23.2172    0.9467   28.5417 C   0  0  0  0  0  0  0  0  0  0  0  0
  -24.8647    2.8700   30.7384 C   0  0  0  0  0  0  0  0  0  0  0  0
  -24.9638    2.5515   29.2630 C   0  0  0  0  0  0  0  0  0  0  0  0
  -26.3503    2.7280   28.6991 C   0  0  0  0  0  0  0  0  0  0  0  0
  -25.3719    0.1084   29.3678 C   0  0  0  0  0  0  0  0  0  0  0  0
  -26.0020   -0.5651   28.1850 C   0  0  0  0  0  0  0  0  0  0  0  0
  -19.4583   -4.6833   23.0683 C   0  0  0  0  0  0  0  0  0  0  0  0
  -19.3904   -6.0800   22.4495 C   0  0  1  0  0  0  0  0  0  0  0  0
  -17.9540   -6.5215   22.1329 C   0  0  0  0  0  0  0  0  0  0  0  0
  -17.8866   -7.9223   21.5480 C   0  0  0  0  0  0  0  0  0  0  0  0
  -20.1008   -7.1091   23.3259 C   0  0  0  0  0  0  0  0  0  0  0  0
  -20.0622   -8.4891   22.6859 C   0  0  0  0  0  0  0  0  0  0  0  0
  -18.6282   -8.9155   22.4164 C   0  0  1  0  0  0  0  0  0  0  0  0
  -18.6398  -10.2453   21.7823 N   0  0  0  0  0  0  0  0  0  0  0  0
  -19.3056  -10.1831   21.0120 H   0  0  0  0  0  0  0  0  0  0  0  0
  -19.0131  -11.6128   22.5887 S   0  0  0  0  0  0  0  0  0  0  0  0
  -18.2797  -11.5251   23.8153 O   0  0  0  0  0  0  0  0  0  0  0  0
  -20.4458  -11.6916   22.6314 O   0  0  0  0  0  0  0  0  0  0  0  0
  -18.3646  -12.9524   21.6037 C   0  0  0  0  0  0  0  0  0  0  0  0
  -18.6267  -14.3171   22.2079 C   0  0  0  0  0  0  0  0  0  0  0  0
 27 28  1  0
 24 30  1  0
 24 26  1  0
 41 42  2  0
 41 43  2  0
 41 44  1  0
 24 28  1  0
 28 29  1  0
 10 14  2  0
 16 12  1  0
 11 15  2  0
 30 31  1  0
  1  3  1  0
  1  4  1  0
  2 32  1  0
 25 26  2  0
 26 17  1  0
 41 39  1  0
 17 18  2  0
 17 22  1  0
 18 19  1  0
 19 20  2  0
 19 23  1  0
 20 21  1  0
 21 22  2  0
 16 22  1  0
 12 13  2  0
 12 15  1  0
 10 13  1  0
 11 14  1  0
  1 15  1  0
  3  5  1  0
  4  5  1  0
  5  6  1  0
  5  8  1  0
  6  7  1  0
  2  7  1  0
  8  9  1  0
  2  9  1  0
 33 32  1  1
 33 34  1  0
 33 36  1  0
 34 35  1  0
 35 38  1  0
 36 37  1  0
 37 38  1  0
 38 39  1  6
 44 45  1  0
 39 40  1  0
M  END
>  <minimizedAffinity>  (1) 
-7.77188

>  <CNNscore>  (1) 
0.3288578987

>  <CNNaffinity>  (1) 
7.0757441521

>  <CNN_VS>  (1) 
2.3269143105

>  <CNNaffinity_variance>  (1) 
0.1022295132

$$$$
