7uj4
     RDKit          3D

 45 49  0  0  0  0  0  0  0  0999 V2000
  -22.6907   -0.1548   24.9096 N   0  0  0  0  0  0  0  0  0  0  0  0
  -20.7948   -4.4218   23.4883 N   0  0  0  0  0  0  0  0  0  0  0  0
  -21.9361   -0.8251   23.8640 C   0  0  0  0  0  0  0  0  0  0  0  0
  -23.0121   -1.2825   25.7765 C   0  0  0  0  0  0  0  0  0  0  0  0
  -22.1263   -2.1221   24.7639 C   0  0  0  0  0  0  0  0  0  0  0  0
  -20.8209   -2.7005   25.3087 C   0  0  0  0  0  0  0  0  0  0  0  0
  -20.0160   -3.3506   24.2069 C   0  0  0  0  0  0  0  0  0  0  0  0
  -22.8993   -3.2420   24.0730 C   0  0  0  0  0  0  0  0  0  0  0  0
  -22.0998   -3.8973   22.9741 C   0  0  0  0  0  0  0  0  0  0  0  0
  -23.2777    3.8067   25.6703 N   0  0  0  0  0  0  0  0  0  0  0  0
  -21.9223    1.8580   25.7491 N   0  0  0  0  0  0  0  0  0  0  0  0
  -24.0499    1.8047   24.7536 C   0  0  0  0  0  0  0  0  0  0  0  0
  -24.2230    3.1342   25.0452 C   0  0  0  0  0  0  0  0  0  0  0  0
  -22.1400    3.1619   25.9520 C   0  0  0  0  0  0  0  0  0  0  0  0
  -22.8651    1.1754   25.1141 C   0  0  0  0  0  0  0  0  0  0  0  0
  -25.0421    1.1451   24.1095 O   0  0  0  0  0  0  0  0  0  0  0  0
  -25.8658    1.8537   21.9778 C   0  0  0  0  0  0  0  0  0  0  0  0
  -26.8613    2.5008   21.2438 C   0  0  0  0  0  0  0  0  0  0  0  0
  -27.9598    2.9833   21.9112 C   0  0  0  0  0  0  0  0  0  0  0  0
  -28.1395    2.8822   23.2706 C   0  0  0  0  0  0  0  0  0  0  0  0
  -27.1432    2.2642   24.0016 C   0  0  0  0  0  0  0  0  0  0  0  0
  -26.0105    1.8032   23.3665 C   0  0  0  0  0  0  0  0  0  0  0  0
  -28.9330    3.6042   21.2100 F   0  0  0  0  0  0  0  0  0  0  0  0
  -24.6806    0.0436   20.6848 N   0  0  0  0  0  0  0  0  0  0  0  0
  -23.5944    1.8507   21.3768 O   0  0  0  0  0  0  0  0  0  0  0  0
  -24.6451    1.2268   21.3239 C   0  0  0  0  0  0  0  0  0  0  0  0
  -25.4029   -2.1972   21.3439 C   0  0  0  0  0  0  0  0  0  0  0  0
  -25.8248   -0.8749   20.7427 C   0  0  0  0  0  0  0  0  0  0  0  0
  -26.4816   -1.0076   19.3927 C   0  0  0  0  0  0  0  0  0  0  0  0
  -23.5142   -0.4609   19.9452 C   0  0  0  0  0  0  0  0  0  0  0  0
  -23.3408    0.1750   18.5978 C   0  0  0  0  0  0  0  0  0  0  0  0
  -20.0113   -4.9488   22.3257 C   0  0  0  0  0  0  0  0  0  0  0  0
  -19.3001   -6.2722   22.6101 C   0  0  1  0  0  0  0  0  0  0  0  0
  -20.2626   -7.3800   23.0624 C   0  0  0  0  0  0  0  0  0  0  0  0
  -19.5580   -8.7027   23.3134 C   0  0  0  0  0  0  0  0  0  0  0  0
  -18.4686   -6.7228   21.4111 C   0  0  0  0  0  0  0  0  0  0  0  0
  -17.7339   -8.0204   21.7145 C   0  0  0  0  0  0  0  0  0  0  0  0
  -18.7133   -9.1082   22.1249 C   0  0  1  0  0  0  0  0  0  0  0  0
  -17.9587  -10.3373   22.4254 N   0  0  0  0  0  0  0  0  0  0  0  0
  -16.9751  -10.1025   22.2919 H   0  0  0  0  0  0  0  0  0  0  0  0
  -18.1957  -11.7433   21.6337 S   0  0  0  0  0  0  0  0  0  0  0  0
  -18.6583  -11.3575   20.3347 O   0  0  0  0  0  0  0  0  0  0  0  0
  -16.9790  -12.4959   21.7508 O   0  0  0  0  0  0  0  0  0  0  0  0
  -19.5084  -12.5797   22.5071 C   0  0  0  0  0  0  0  0  0  0  0  0
  -19.2975  -14.0768   22.6076 C   0  0  0  0  0  0  0  0  0  0  0  0
 27 28  1  0
 24 30  1  0
 24 26  1  0
 41 42  2  0
 41 43  2  0
 41 44  1  0
 24 28  1  0
 28 29  1  0
 10 14  2  0
 16 12  1  0
 11 15  2  0
 30 31  1  0
  1  3  1  0
  1  4  1  0
  2 32  1  0
 25 26  2  0
 26 17  1  0
 41 39  1  0
 17 18  2  0
 17 22  1  0
 18 19  1  0
 19 20  2  0
 19 23  1  0
 20 21  1  0
 21 22  2  0
 16 22  1  0
 12 13  2  0
 12 15  1  0
 10 13  1  0
 11 14  1  0
  1 15  1  0
  3  5  1  0
  4  5  1  0
  5  6  1  0
  5  8  1  0
  6  7  1  0
  2  7  1  0
  8  9  1  0
  2  9  1  0
 33 32  1  6
 33 34  1  0
 33 36  1  0
 34 35  1  0
 35 38  1  0
 36 37  1  0
 37 38  1  0
 38 39  1  1
 44 45  1  0
 39 40  1  0
M  END
>  <minimizedAffinity>  (1) 
-7.67832

>  <CNNscore>  (1) 
0.3960565329

>  <CNNaffinity>  (1) 
6.9349174500

>  <CNN_VS>  (1) 
2.7466194630

>  <CNNaffinity_variance>  (1) 
0.1669732332

$$$$
