7uj4
     RDKit          3D

 45 49  0  0  0  0  0  0  0  0999 V2000
  -21.2952    0.6093   22.1866 N   0  0  0  0  0  0  0  0  0  0  0  0
  -19.0768    3.7467   25.1962 N   0  0  0  0  0  0  0  0  0  0  0  0
  -20.8425    0.8216   23.5512 C   0  0  0  0  0  0  0  0  0  0  0  0
  -20.9848    1.9051   21.5941 C   0  0  0  0  0  0  0  0  0  0  0  0
  -20.3608    2.2383   23.0134 C   0  0  0  0  0  0  0  0  0  0  0  0
  -18.8477    2.4448   23.0678 C   0  0  0  0  0  0  0  0  0  0  0  0
  -18.3757    2.6129   24.4939 C   0  0  0  0  0  0  0  0  0  0  0  0
  -21.0345    3.4201   23.7052 C   0  0  0  0  0  0  0  0  0  0  0  0
  -20.5651    3.5953   25.1282 C   0  0  0  0  0  0  0  0  0  0  0  0
  -22.5482   -2.7636   20.2708 N   0  0  0  0  0  0  0  0  0  0  0  0
  -20.8294   -1.2435   20.8842 N   0  0  0  0  0  0  0  0  0  0  0  0
  -23.0321   -0.9397   21.6433 C   0  0  0  0  0  0  0  0  0  0  0  0
  -23.4238   -2.0680   20.9680 C   0  0  0  0  0  0  0  0  0  0  0  0
  -21.2729   -2.3601   20.2965 C   0  0  0  0  0  0  0  0  0  0  0  0
  -21.7021   -0.5417   21.5941 C   0  0  0  0  0  0  0  0  0  0  0  0
  -23.9587   -0.2498   22.3504 O   0  0  0  0  0  0  0  0  0  0  0  0
  -24.5280    0.7933   24.4270 C   0  0  0  0  0  0  0  0  0  0  0  0
  -24.6212    0.7013   25.8167 C   0  0  0  0  0  0  0  0  0  0  0  0
  -24.3011   -0.4905   26.4185 C   0  0  0  0  0  0  0  0  0  0  0  0
  -23.8772   -1.6068   25.7367 C   0  0  0  0  0  0  0  0  0  0  0  0
  -23.7603   -1.5095   24.3635 C   0  0  0  0  0  0  0  0  0  0  0  0
  -24.0374   -0.3158   23.7332 C   0  0  0  0  0  0  0  0  0  0  0  0
  -24.3953   -0.5933   27.7619 F   0  0  0  0  0  0  0  0  0  0  0  0
  -26.1974    2.3426   23.3473 N   0  0  0  0  0  0  0  0  0  0  0  0
  -24.0296    2.8172   23.3426 O   0  0  0  0  0  0  0  0  0  0  0  0
  -24.9236    2.0461   23.6624 C   0  0  0  0  0  0  0  0  0  0  0  0
  -27.7098    0.8434   22.1464 C   0  0  0  0  0  0  0  0  0  0  0  0
  -27.3104    1.3966   23.4964 C   0  0  0  0  0  0  0  0  0  0  0  0
  -28.4534    2.0204   24.2554 C   0  0  0  0  0  0  0  0  0  0  0  0
  -26.5528    3.6302   22.7326 C   0  0  0  0  0  0  0  0  0  0  0  0
  -26.2680    4.8109   23.6127 C   0  0  0  0  0  0  0  0  0  0  0  0
  -18.6768    3.7970   26.6387 C   0  0  0  0  0  0  0  0  0  0  0  0
  -19.7545    3.2867   27.5960 C   0  0  1  0  0  0  0  0  0  0  0  0
  -20.7731    4.3707   27.9776 C   0  0  0  0  0  0  0  0  0  0  0  0
  -21.8613    3.8529   28.9033 C   0  0  0  0  0  0  0  0  0  0  0  0
  -20.4526    2.0498   27.0352 C   0  0  0  0  0  0  0  0  0  0  0  0
  -21.4973    1.5253   28.0094 C   0  0  0  0  0  0  0  0  0  0  0  0
  -22.5121    2.6073   28.3417 C   0  0  1  0  0  0  0  0  0  0  0  0
  -23.4907    2.0621   29.2986 N   0  0  0  0  0  0  0  0  0  0  0  0
  -23.5948    1.0754   29.0621 H   0  0  0  0  0  0  0  0  0  0  0  0
  -25.0046    2.6483   29.4548 S   0  0  0  0  0  0  0  0  0  0  0  0
  -24.9126    3.6236   30.4991 O   0  0  0  0  0  0  0  0  0  0  0  0
  -25.4279    3.0588   28.1461 O   0  0  0  0  0  0  0  0  0  0  0  0
  -26.0037    1.2772   30.0093 C   0  0  0  0  0  0  0  0  0  0  0  0
  -25.9592    1.0766   31.5105 C   0  0  0  0  0  0  0  0  0  0  0  0
 27 28  1  0
 24 30  1  0
 24 26  1  0
 41 42  2  0
 41 43  2  0
 41 44  1  0
 24 28  1  0
 28 29  1  0
 10 14  2  0
 16 12  1  0
 11 15  2  0
 30 31  1  0
  1  3  1  0
  1  4  1  0
  2 32  1  0
 25 26  2  0
 26 17  1  0
 41 39  1  0
 17 18  2  0
 17 22  1  0
 18 19  1  0
 19 20  2  0
 19 23  1  0
 20 21  1  0
 21 22  2  0
 16 22  1  0
 12 13  2  0
 12 15  1  0
 10 13  1  0
 11 14  1  0
  1 15  1  0
  3  5  1  0
  4  5  1  0
  5  6  1  0
  5  8  1  0
  6  7  1  0
  2  7  1  0
  8  9  1  0
  2  9  1  0
 33 32  1  6
 33 34  1  0
 33 36  1  0
 34 35  1  0
 35 38  1  0
 36 37  1  0
 37 38  1  0
 38 39  1  1
 44 45  1  0
 39 40  1  0
M  END
>  <minimizedAffinity>  (1) 
-7.77539

>  <CNNscore>  (1) 
0.2879994810

>  <CNNaffinity>  (1) 
7.8076176643

>  <CNN_VS>  (1) 
2.2485897541

>  <CNNaffinity_variance>  (1) 
0.2248929739

$$$$
